version 2
run General-0-20171124-17:36:36-32220
attr configname General
attr datetime 20171124-17:36:36
attr experiment General
attr inifile omnetpp.ini
attr iterationvars ""
attr iterationvars2 $repetition=0
attr measurement ""
attr network PacketBouncewithTCP
attr processid 32220
attr repetition 0
attr replication #0
attr resultdir results
attr runnumber 0
attr seedset 0

scalar PacketBouncewithTCP.server3.networkLayer.arp 	failedARPResolution:count 	0
attr title  "ARP failed resolutions, count"
scalar PacketBouncewithTCP.server3.networkLayer.arp 	completedARPResolution:count 	1
attr title  "ARP completed resolutions, count"
scalar PacketBouncewithTCP.server3.networkLayer.arp 	initiatedARPResolution:count 	0
attr title  "ARP initiated resolutions, count"
scalar PacketBouncewithTCP.server3.networkLayer.arp 	sentReply:count 	1
attr title  "ARP replies sent, count"
scalar PacketBouncewithTCP.server3.networkLayer.arp 	sentReq:count 	0
attr title  "ARP request sent, count"
scalar PacketBouncewithTCP.server3.lo0.lo 	droppedPkBitError:count 	0
attr interpolationmode  none
attr source  dropPkBitError
attr title  "packets dropped/bit error, count"
scalar PacketBouncewithTCP.server3.lo0.lo 	droppedPkBitError:sum(packetBytes) 	0
attr interpolationmode  none
attr source  dropPkBitError
attr title  "packets dropped/bit error, sum(packetBytes)"
scalar PacketBouncewithTCP.server3.lo0.lo 	rcvdPkFromHL:count 	0
attr interpolationmode  none
attr source  packetReceivedFromUpper
attr title  "packets received from higher layer, count"
scalar PacketBouncewithTCP.server3.lo0.lo 	rcvdPkFromHL:sum(packetBytes) 	0
attr interpolationmode  none
attr source  packetReceivedFromUpper
attr title  "packets received from higher layer, sum(packetBytes)"
scalar PacketBouncewithTCP.server3.lo0.lo 	passedUpPk:count 	0
attr interpolationmode  none
attr source  packetSentToUpper
attr title  "packets passed to higher layer, count"
scalar PacketBouncewithTCP.server3.lo0.lo 	passedUpPk:sum(packetBytes) 	0
attr interpolationmode  none
attr source  packetSentToUpper
attr title  "packets passed to higher layer, sum(packetBytes)"
statistic PacketBouncewithTCP.server3.eth[0].queue.pauseQueue 	queueingTime:histogram
field count 0
field mean nan
field stddev nan
field sum 0
field sqrsum 0
field min nan
field max nan
attr interpolationmode  none
attr title  "queueing time, histogram"
bin	-INF	0
bin	-0.5	0
bin	-0.46666666666667	0
bin	-0.43333333333333	0
bin	-0.4	0
bin	-0.36666666666667	0
bin	-0.33333333333333	0
bin	-0.3	0
bin	-0.26666666666667	0
bin	-0.23333333333333	0
bin	-0.2	0
bin	-0.16666666666667	0
bin	-0.13333333333333	0
bin	-0.1	0
bin	-0.066666666666667	0
bin	-0.033333333333333	0
bin	0	0
bin	0.033333333333333	0
bin	0.066666666666667	0
bin	0.1	0
bin	0.13333333333333	0
bin	0.16666666666667	0
bin	0.2	0
bin	0.23333333333333	0
bin	0.26666666666667	0
bin	0.3	0
bin	0.33333333333333	0
bin	0.36666666666667	0
bin	0.4	0
bin	0.43333333333333	0
bin	0.46666666666667	0
bin	0.5	0
scalar PacketBouncewithTCP.server3.eth[0].queue.pauseQueue 	dropPk:count 	0
attr interpolationmode  none
attr source  dropPkByQueue
attr title  "dropped packets, count"
scalar PacketBouncewithTCP.server3.eth[0].queue.pauseQueue 	dropPk:sum(packetBytes) 	0
attr interpolationmode  none
attr source  dropPkByQueue
attr title  "dropped packets, sum(packetBytes)"
scalar PacketBouncewithTCP.server3.eth[0].queue.pauseQueue 	queueLength:max 	0
attr interpolationmode  sample-hold
attr title  "queue length, max"
scalar PacketBouncewithTCP.server3.eth[0].queue.pauseQueue 	queueLength:timeavg 	0
attr interpolationmode  sample-hold
attr title  "queue length, timeavg"
scalar PacketBouncewithTCP.server3.eth[0].queue.pauseQueue 	rcvdPk:count 	0
attr interpolationmode  none
attr title  "received packets, count"
scalar PacketBouncewithTCP.server3.eth[0].queue.pauseQueue 	rcvdPk:sum(packetBytes) 	0
attr interpolationmode  none
attr title  "received packets, sum(packetBytes)"
statistic PacketBouncewithTCP.server3.eth[0].queue.passBackQueue 	queueingTime:histogram
field count 0
field mean nan
field stddev nan
field sum 0
field sqrsum 0
field min nan
field max nan
attr interpolationmode  none
attr title  "queueing time, histogram"
bin	-INF	0
bin	-0.5	0
bin	-0.46666666666667	0
bin	-0.43333333333333	0
bin	-0.4	0
bin	-0.36666666666667	0
bin	-0.33333333333333	0
bin	-0.3	0
bin	-0.26666666666667	0
bin	-0.23333333333333	0
bin	-0.2	0
bin	-0.16666666666667	0
bin	-0.13333333333333	0
bin	-0.1	0
bin	-0.066666666666667	0
bin	-0.033333333333333	0
bin	0	0
bin	0.033333333333333	0
bin	0.066666666666667	0
bin	0.1	0
bin	0.13333333333333	0
bin	0.16666666666667	0
bin	0.2	0
bin	0.23333333333333	0
bin	0.26666666666667	0
bin	0.3	0
bin	0.33333333333333	0
bin	0.36666666666667	0
bin	0.4	0
bin	0.43333333333333	0
bin	0.46666666666667	0
bin	0.5	0
scalar PacketBouncewithTCP.server3.eth[0].queue.passBackQueue 	dropPk:count 	0
attr interpolationmode  none
attr source  dropPkByQueue
attr title  "dropped packets, count"
scalar PacketBouncewithTCP.server3.eth[0].queue.passBackQueue 	dropPk:sum(packetBytes) 	0
attr interpolationmode  none
attr source  dropPkByQueue
attr title  "dropped packets, sum(packetBytes)"
scalar PacketBouncewithTCP.server3.eth[0].queue.passBackQueue 	queueLength:max 	0
attr interpolationmode  sample-hold
attr title  "queue length, max"
scalar PacketBouncewithTCP.server3.eth[0].queue.passBackQueue 	queueLength:timeavg 	0
attr interpolationmode  sample-hold
attr title  "queue length, timeavg"
scalar PacketBouncewithTCP.server3.eth[0].queue.passBackQueue 	rcvdPk:count 	0
attr interpolationmode  none
attr title  "received packets, count"
scalar PacketBouncewithTCP.server3.eth[0].queue.passBackQueue 	rcvdPk:sum(packetBytes) 	0
attr interpolationmode  none
attr title  "received packets, sum(packetBytes)"
statistic PacketBouncewithTCP.server3.eth[0].queue.dataQueue 	queueingTime:histogram
field count 8024
field mean 0.00021438557377866
field stddev 0.00012826859182545
field sum 1.720229844
field sqrsum 0.00050079353045611
field min 0
field max 0.00041824
attr interpolationmode  none
attr title  "queueing time, histogram"
bin	-INF	0
bin	-7.368e-06	0
bin	-6.3856e-06	0
bin	-5.4032e-06	0
bin	-4.4208e-06	0
bin	-3.4384e-06	0
bin	-2.456e-06	0
bin	-1.4736e-06	0
bin	-4.912e-07	284
bin	4.912e-07	6
bin	1.4736e-06	0
bin	2.456e-06	3
bin	3.4384e-06	0
bin	4.4208e-06	125
bin	5.4032e-06	4
bin	6.3856e-06	2
bin	7.368e-06	1
bin	8.3504e-06	7
bin	9.3328e-06	123
bin	1.03152e-05	3
bin	1.12976e-05	4
bin	1.228e-05	2
bin	1.32624e-05	1
bin	1.42448e-05	89
bin	1.52272e-05	3
bin	1.62096e-05	0
bin	1.7192e-05	3
bin	1.81744e-05	1
bin	1.91568e-05	79
bin	2.01392e-05	3
bin	2.11216e-05	0
bin	2.2104e-05	7281
scalar PacketBouncewithTCP.server3.eth[0].queue.dataQueue 	dropPk:count 	0
attr interpolationmode  none
attr source  dropPkByQueue
attr title  "dropped packets, count"
scalar PacketBouncewithTCP.server3.eth[0].queue.dataQueue 	dropPk:sum(packetBytes) 	0
attr interpolationmode  none
attr source  dropPkByQueue
attr title  "dropped packets, sum(packetBytes)"
scalar PacketBouncewithTCP.server3.eth[0].queue.dataQueue 	queueLength:max 	86
attr interpolationmode  sample-hold
attr title  "queue length, max"
scalar PacketBouncewithTCP.server3.eth[0].queue.dataQueue 	queueLength:timeavg 	0.0070757133662421
attr interpolationmode  sample-hold
attr title  "queue length, timeavg"
scalar PacketBouncewithTCP.server3.eth[0].queue.dataQueue 	rcvdPk:count 	8024
attr interpolationmode  none
attr title  "received packets, count"
scalar PacketBouncewithTCP.server3.eth[0].queue.dataQueue 	rcvdPk:sum(packetBytes) 	4755976
attr interpolationmode  none
attr title  "received packets, sum(packetBytes)"
scalar PacketBouncewithTCP.server3.eth[0].mac 	"simulated time" 	243.117514088
scalar PacketBouncewithTCP.server3.eth[0].mac 	full-duplex 	1
scalar PacketBouncewithTCP.server3.eth[0].mac 	"frames/sec sent" 	33.004615196483
scalar PacketBouncewithTCP.server3.eth[0].mac 	"frames/sec rcvd" 	33.016954908047
scalar PacketBouncewithTCP.server3.eth[0].mac 	"bits/sec sent" 	156499.65878735
scalar PacketBouncewithTCP.server3.eth[0].mac 	"bits/sec rcvd" 	18515.161348559
scalar PacketBouncewithTCP.server3.eth[0].mac 	"rx channel idle (%)" 	99.997937175354
scalar PacketBouncewithTCP.server3.eth[0].mac 	"rx channel utilization (%)" 	0.0020628246462674
scalar PacketBouncewithTCP.server3.eth[0].mac 	droppedPkNotForUs:count 	0
attr interpolationmode  none
attr source  dropPkNotForUs
attr title  "packets dropped/not for us, count"
scalar PacketBouncewithTCP.server3.eth[0].mac 	droppedPkNotForUs:sum(packetBytes) 	0
attr interpolationmode  none
attr source  dropPkNotForUs
attr title  "packets dropped/not for us, sum(packetBytes)"
scalar PacketBouncewithTCP.server3.eth[0].mac 	droppedPkIfaceDown:count 	0
attr interpolationmode  none
attr source  dropPkIfaceDown
attr title  "packets dropped/interface down, count"
scalar PacketBouncewithTCP.server3.eth[0].mac 	droppedPkIfaceDown:sum(packetBytes) 	0
attr interpolationmode  none
attr source  dropPkIfaceDown
attr title  "packets dropped/interface down, sum(packetBytes)"
scalar PacketBouncewithTCP.server3.eth[0].mac 	droppedPkBitError:count 	0
attr interpolationmode  none
attr source  dropPkBitError
attr title  "packets dropped/bit error, count"
scalar PacketBouncewithTCP.server3.eth[0].mac 	droppedPkBitError:sum(packetBytes) 	0
attr interpolationmode  none
attr source  dropPkBitError
attr title  "packets dropped/bit error, sum(packetBytes)"
scalar PacketBouncewithTCP.server3.eth[0].mac 	rxPkFromHL:count 	8024
attr interpolationmode  none
attr source  rxPkFromHL
attr title  "packet bytes from higher layer, count"
scalar PacketBouncewithTCP.server3.eth[0].mac 	rxPkFromHL:sum(packetBytes) 	4755976
attr interpolationmode  none
attr source  rxPkFromHL
attr title  "packet bytes from higher layer, sum(packetBytes)"
scalar PacketBouncewithTCP.server3.eth[0].mac 	rxPausePkUnits:count 	0
attr interpolationmode  none
attr title  "pause units received, count"
scalar PacketBouncewithTCP.server3.eth[0].mac 	rxPausePkUnits:sum 	0
attr interpolationmode  none
attr title  "pause units received, sum"
scalar PacketBouncewithTCP.server3.eth[0].mac 	txPausePkUnits:count 	0
attr interpolationmode  none
attr title  "pause units sent, count"
scalar PacketBouncewithTCP.server3.eth[0].mac 	txPausePkUnits:sum 	0
attr interpolationmode  none
attr title  "pause units sent, sum"
scalar PacketBouncewithTCP.server3.eth[0].mac 	rxPkOk:count 	8027
attr interpolationmode  none
attr source  rxPkOk
attr title  "packets received OK, count"
scalar PacketBouncewithTCP.server3.eth[0].mac 	rxPkOk:sum(packetBytes) 	562670
attr interpolationmode  none
attr source  rxPkOk
attr title  "packets received OK, sum(packetBytes)"
scalar PacketBouncewithTCP.server3.eth[0].mac 	txPk:count 	8024
attr interpolationmode  none
attr source  txPk
attr title  "packets transmitted, count"
scalar PacketBouncewithTCP.server3.eth[0].mac 	txPk:sum(packetBytes) 	4755976
attr interpolationmode  none
attr source  txPk
attr title  "packets transmitted, sum(packetBytes)"
scalar PacketBouncewithTCP.server3.eth[0].mac 	passedUpPk:count 	8027
attr interpolationmode  none
attr source  packetSentToUpper
attr title  "packets passed to higher layer, count"
scalar PacketBouncewithTCP.server3.eth[0].mac 	passedUpPk:sum(packetBytes) 	562670
attr interpolationmode  none
attr source  packetSentToUpper
attr title  "packets passed to higher layer, sum(packetBytes)"
statistic PacketBouncewithTCP.server3.eth[0].encap 	reversePassback:histogram
field count 0
field mean nan
field stddev nan
field sum 0
field sqrsum 0
field min nan
field max nan
attr interpolationmode  none
attr title  "SHI: reverse passback number of frame, histogram"
bin	-INF	0
bin	-0.5	0
bin	-0.46666666666667	0
bin	-0.43333333333333	0
bin	-0.4	0
bin	-0.36666666666667	0
bin	-0.33333333333333	0
bin	-0.3	0
bin	-0.26666666666667	0
bin	-0.23333333333333	0
bin	-0.2	0
bin	-0.16666666666667	0
bin	-0.13333333333333	0
bin	-0.1	0
bin	-0.066666666666667	0
bin	-0.033333333333333	0
bin	0	0
bin	0.033333333333333	0
bin	0.066666666666667	0
bin	0.1	0
bin	0.13333333333333	0
bin	0.16666666666667	0
bin	0.2	0
bin	0.23333333333333	0
bin	0.26666666666667	0
bin	0.3	0
bin	0.33333333333333	0
bin	0.36666666666667	0
bin	0.4	0
bin	0.43333333333333	0
bin	0.46666666666667	0
bin	0.5	0
scalar PacketBouncewithTCP.server3.eth[0].encap 	pauseSent:count 	0
attr title  "pause sent, count"
scalar PacketBouncewithTCP.server3.eth[0].encap 	pauseSent:sum 	0
attr title  "pause sent, sum"
scalar PacketBouncewithTCP.server3.eth[0].encap 	decapPk:count 	8027
attr interpolationmode  none
attr source  decapPk
attr title  "packets decapsulated, count"
scalar PacketBouncewithTCP.server3.eth[0].encap 	decapPk:sum(packetBytes) 	418124
attr interpolationmode  none
attr source  decapPk
attr title  "packets decapsulated, sum(packetBytes)"
scalar PacketBouncewithTCP.server3.eth[0].encap 	encapPk:count 	8024
attr interpolationmode  none
attr source  encapPk
attr title  "packets encapsulated, count"
scalar PacketBouncewithTCP.server3.eth[0].encap 	encapPk:sum(packetBytes) 	4611520
attr interpolationmode  none
attr source  encapPk
attr title  "packets encapsulated, sum(packetBytes)"
scalar PacketBouncewithTCP.server3.tcpApp[0] 	rcvdPk:count 	4
attr interpolationmode  none
attr source  rcvdPk
attr title  "packets received, count"
scalar PacketBouncewithTCP.server3.tcpApp[0] 	rcvdPk:sum(packetBytes) 	800
attr interpolationmode  none
attr source  rcvdPk
attr title  "packets received, sum(packetBytes)"
statistic PacketBouncewithTCP.server3.tcpApp[0] 	endToEndDelay:histogram
field count 4
field mean 1.042e-05
field stddev 2.648e-06
field sum 4.168e-05
field sqrsum 4.55341312e-10
field min 9.096e-06
field max 1.4392e-05
attr interpolationmode  none
attr source  messageAge(rcvdPk)
attr title  "end-to-end delay, histogram"
attr unit  s
bin	-INF	0
bin	6.448e-06	0
bin	6.8010666666667e-06	0
bin	7.1541333333333e-06	0
bin	7.5072e-06	0
bin	7.8602666666667e-06	0
bin	8.2133333333333e-06	0
bin	8.5664e-06	0
bin	8.9194666666667e-06	3
bin	9.2725333333333e-06	0
bin	9.6256e-06	0
bin	9.9786666666667e-06	0
bin	1.0331733333333e-05	0
bin	1.06848e-05	0
bin	1.1037866666667e-05	0
bin	1.1390933333333e-05	0
bin	1.1744e-05	0
bin	1.2097066666667e-05	0
bin	1.2450133333333e-05	0
bin	1.28032e-05	0
bin	1.3156266666667e-05	0
bin	1.3509333333333e-05	0
bin	1.38624e-05	0
bin	1.4215466666667e-05	1
bin	1.4568533333333e-05	0
bin	1.49216e-05	0
bin	1.5274666666667e-05	0
bin	1.5627733333333e-05	0
bin	1.59808e-05	0
bin	1.6333866666667e-05	0
bin	1.6686933333333e-05	0
bin	1.704e-05	0
scalar PacketBouncewithTCP.server3.tcpApp[0] 	sentPk:count 	4
attr interpolationmode  none
attr source  sentPk
attr title  "packets sent, count"
scalar PacketBouncewithTCP.server3.tcpApp[0] 	sentPk:sum(packetBytes) 	4194304
attr interpolationmode  none
attr source  sentPk
attr title  "packets sent, sum(packetBytes)"
scalar PacketBouncewithTCP.client.networkLayer.arp 	failedARPResolution:count 	0
attr title  "ARP failed resolutions, count"
scalar PacketBouncewithTCP.client.networkLayer.arp 	completedARPResolution:count 	3
attr title  "ARP completed resolutions, count"
scalar PacketBouncewithTCP.client.networkLayer.arp 	initiatedARPResolution:count 	3
attr title  "ARP initiated resolutions, count"
scalar PacketBouncewithTCP.client.networkLayer.arp 	sentReply:count 	0
attr title  "ARP replies sent, count"
scalar PacketBouncewithTCP.client.networkLayer.arp 	sentReq:count 	3
attr title  "ARP request sent, count"
scalar PacketBouncewithTCP.client.lo0.lo 	droppedPkBitError:count 	0
attr interpolationmode  none
attr source  dropPkBitError
attr title  "packets dropped/bit error, count"
scalar PacketBouncewithTCP.client.lo0.lo 	droppedPkBitError:sum(packetBytes) 	0
attr interpolationmode  none
attr source  dropPkBitError
attr title  "packets dropped/bit error, sum(packetBytes)"
scalar PacketBouncewithTCP.client.lo0.lo 	rcvdPkFromHL:count 	0
attr interpolationmode  none
attr source  packetReceivedFromUpper
attr title  "packets received from higher layer, count"
scalar PacketBouncewithTCP.client.lo0.lo 	rcvdPkFromHL:sum(packetBytes) 	0
attr interpolationmode  none
attr source  packetReceivedFromUpper
attr title  "packets received from higher layer, sum(packetBytes)"
scalar PacketBouncewithTCP.client.lo0.lo 	passedUpPk:count 	0
attr interpolationmode  none
attr source  packetSentToUpper
attr title  "packets passed to higher layer, count"
scalar PacketBouncewithTCP.client.lo0.lo 	passedUpPk:sum(packetBytes) 	0
attr interpolationmode  none
attr source  packetSentToUpper
attr title  "packets passed to higher layer, sum(packetBytes)"
statistic PacketBouncewithTCP.client.eth[0].queue.pauseQueue 	queueingTime:histogram
field count 0
field mean nan
field stddev nan
field sum 0
field sqrsum 0
field min nan
field max nan
attr interpolationmode  none
attr title  "queueing time, histogram"
bin	-INF	0
bin	-0.5	0
bin	-0.46666666666667	0
bin	-0.43333333333333	0
bin	-0.4	0
bin	-0.36666666666667	0
bin	-0.33333333333333	0
bin	-0.3	0
bin	-0.26666666666667	0
bin	-0.23333333333333	0
bin	-0.2	0
bin	-0.16666666666667	0
bin	-0.13333333333333	0
bin	-0.1	0
bin	-0.066666666666667	0
bin	-0.033333333333333	0
bin	0	0
bin	0.033333333333333	0
bin	0.066666666666667	0
bin	0.1	0
bin	0.13333333333333	0
bin	0.16666666666667	0
bin	0.2	0
bin	0.23333333333333	0
bin	0.26666666666667	0
bin	0.3	0
bin	0.33333333333333	0
bin	0.36666666666667	0
bin	0.4	0
bin	0.43333333333333	0
bin	0.46666666666667	0
bin	0.5	0
scalar PacketBouncewithTCP.client.eth[0].queue.pauseQueue 	dropPk:count 	0
attr interpolationmode  none
attr source  dropPkByQueue
attr title  "dropped packets, count"
scalar PacketBouncewithTCP.client.eth[0].queue.pauseQueue 	dropPk:sum(packetBytes) 	0
attr interpolationmode  none
attr source  dropPkByQueue
attr title  "dropped packets, sum(packetBytes)"
scalar PacketBouncewithTCP.client.eth[0].queue.pauseQueue 	queueLength:max 	0
attr interpolationmode  sample-hold
attr title  "queue length, max"
scalar PacketBouncewithTCP.client.eth[0].queue.pauseQueue 	queueLength:timeavg 	0
attr interpolationmode  sample-hold
attr title  "queue length, timeavg"
scalar PacketBouncewithTCP.client.eth[0].queue.pauseQueue 	rcvdPk:count 	0
attr interpolationmode  none
attr title  "received packets, count"
scalar PacketBouncewithTCP.client.eth[0].queue.pauseQueue 	rcvdPk:sum(packetBytes) 	0
attr interpolationmode  none
attr title  "received packets, sum(packetBytes)"
statistic PacketBouncewithTCP.client.eth[0].queue.passBackQueue 	queueingTime:histogram
field count 0
field mean nan
field stddev nan
field sum 0
field sqrsum 0
field min nan
field max nan
attr interpolationmode  none
attr title  "queueing time, histogram"
bin	-INF	0
bin	-0.5	0
bin	-0.46666666666667	0
bin	-0.43333333333333	0
bin	-0.4	0
bin	-0.36666666666667	0
bin	-0.33333333333333	0
bin	-0.3	0
bin	-0.26666666666667	0
bin	-0.23333333333333	0
bin	-0.2	0
bin	-0.16666666666667	0
bin	-0.13333333333333	0
bin	-0.1	0
bin	-0.066666666666667	0
bin	-0.033333333333333	0
bin	0	0
bin	0.033333333333333	0
bin	0.066666666666667	0
bin	0.1	0
bin	0.13333333333333	0
bin	0.16666666666667	0
bin	0.2	0
bin	0.23333333333333	0
bin	0.26666666666667	0
bin	0.3	0
bin	0.33333333333333	0
bin	0.36666666666667	0
bin	0.4	0
bin	0.43333333333333	0
bin	0.46666666666667	0
bin	0.5	0
scalar PacketBouncewithTCP.client.eth[0].queue.passBackQueue 	dropPk:count 	0
attr interpolationmode  none
attr source  dropPkByQueue
attr title  "dropped packets, count"
scalar PacketBouncewithTCP.client.eth[0].queue.passBackQueue 	dropPk:sum(packetBytes) 	0
attr interpolationmode  none
attr source  dropPkByQueue
attr title  "dropped packets, sum(packetBytes)"
scalar PacketBouncewithTCP.client.eth[0].queue.passBackQueue 	queueLength:max 	0
attr interpolationmode  sample-hold
attr title  "queue length, max"
scalar PacketBouncewithTCP.client.eth[0].queue.passBackQueue 	queueLength:timeavg 	0
attr interpolationmode  sample-hold
attr title  "queue length, timeavg"
scalar PacketBouncewithTCP.client.eth[0].queue.passBackQueue 	rcvdPk:count 	0
attr interpolationmode  none
attr title  "received packets, count"
scalar PacketBouncewithTCP.client.eth[0].queue.passBackQueue 	rcvdPk:sum(packetBytes) 	0
attr interpolationmode  none
attr title  "received packets, sum(packetBytes)"
statistic PacketBouncewithTCP.client.eth[0].queue.dataQueue 	queueingTime:histogram
field count 24092
field mean 1.0625933919973e-09
field stddev 5.5239845417388e-08
field sum 2.56e-05
field sqrsum 7.3539456e-11
field min 0
field max 5.296e-06
attr interpolationmode  none
attr title  "queueing time, histogram"
bin	-INF	0
bin	-2.648e-06	0
bin	-2.2949333333333e-06	0
bin	-1.9418666666667e-06	0
bin	-1.5888e-06	0
bin	-1.2357333333333e-06	0
bin	-8.8266666666667e-07	0
bin	-5.296e-07	0
bin	-1.7653333333333e-07	24076
bin	1.7653333333333e-07	2
bin	5.296e-07	6
bin	8.8266666666667e-07	2
bin	1.2357333333333e-06	1
bin	1.5888e-06	1
bin	1.9418666666667e-06	1
bin	2.2949333333333e-06	0
bin	2.648e-06	0
bin	3.0010666666667e-06	1
bin	3.3541333333333e-06	0
bin	3.7072e-06	0
bin	4.0602666666667e-06	0
bin	4.4133333333333e-06	1
bin	4.7664e-06	0
bin	5.1194666666667e-06	1
bin	5.4725333333333e-06	0
bin	5.8256e-06	0
bin	6.1786666666667e-06	0
bin	6.5317333333333e-06	0
bin	6.8848e-06	0
bin	7.2378666666667e-06	0
bin	7.5909333333333e-06	0
bin	7.944e-06	0
scalar PacketBouncewithTCP.client.eth[0].queue.dataQueue 	dropPk:count 	0
attr interpolationmode  none
attr source  dropPkByQueue
attr title  "dropped packets, count"
scalar PacketBouncewithTCP.client.eth[0].queue.dataQueue 	dropPk:sum(packetBytes) 	0
attr interpolationmode  none
attr source  dropPkByQueue
attr title  "dropped packets, sum(packetBytes)"
scalar PacketBouncewithTCP.client.eth[0].queue.dataQueue 	queueLength:max 	4
attr interpolationmode  sample-hold
attr title  "queue length, max"
scalar PacketBouncewithTCP.client.eth[0].queue.dataQueue 	queueLength:timeavg 	1.0529887201271e-07
attr interpolationmode  sample-hold
attr title  "queue length, timeavg"
scalar PacketBouncewithTCP.client.eth[0].queue.dataQueue 	rcvdPk:count 	24092
attr interpolationmode  none
attr title  "received packets, count"
scalar PacketBouncewithTCP.client.eth[0].queue.dataQueue 	rcvdPk:sum(packetBytes) 	1688816
attr interpolationmode  none
attr title  "received packets, sum(packetBytes)"
scalar PacketBouncewithTCP.client.eth[0].mac 	"simulated time" 	243.117514088
scalar PacketBouncewithTCP.client.eth[0].mac 	full-duplex 	1
scalar PacketBouncewithTCP.client.eth[0].mac 	"frames/sec sent" 	99.096110333209
scalar PacketBouncewithTCP.client.eth[0].mac 	"frames/sec rcvd" 	99.083770621645
scalar PacketBouncewithTCP.client.eth[0].mac 	"bits/sec sent" 	55572.006199067
scalar PacketBouncewithTCP.client.eth[0].mac 	"bits/sec rcvd" 	469538.13438007
scalar PacketBouncewithTCP.client.eth[0].mac 	"rx channel idle (%)" 	99.95241205043
scalar PacketBouncewithTCP.client.eth[0].mac 	"rx channel utilization (%)" 	0.047587949569986
scalar PacketBouncewithTCP.client.eth[0].mac 	droppedPkNotForUs:count 	0
attr interpolationmode  none
attr source  dropPkNotForUs
attr title  "packets dropped/not for us, count"
scalar PacketBouncewithTCP.client.eth[0].mac 	droppedPkNotForUs:sum(packetBytes) 	0
attr interpolationmode  none
attr source  dropPkNotForUs
attr title  "packets dropped/not for us, sum(packetBytes)"
scalar PacketBouncewithTCP.client.eth[0].mac 	droppedPkIfaceDown:count 	0
attr interpolationmode  none
attr source  dropPkIfaceDown
attr title  "packets dropped/interface down, count"
scalar PacketBouncewithTCP.client.eth[0].mac 	droppedPkIfaceDown:sum(packetBytes) 	0
attr interpolationmode  none
attr source  dropPkIfaceDown
attr title  "packets dropped/interface down, sum(packetBytes)"
scalar PacketBouncewithTCP.client.eth[0].mac 	droppedPkBitError:count 	0
attr interpolationmode  none
attr source  dropPkBitError
attr title  "packets dropped/bit error, count"
scalar PacketBouncewithTCP.client.eth[0].mac 	droppedPkBitError:sum(packetBytes) 	0
attr interpolationmode  none
attr source  dropPkBitError
attr title  "packets dropped/bit error, sum(packetBytes)"
scalar PacketBouncewithTCP.client.eth[0].mac 	rxPkFromHL:count 	24092
attr interpolationmode  none
attr source  rxPkFromHL
attr title  "packet bytes from higher layer, count"
scalar PacketBouncewithTCP.client.eth[0].mac 	rxPkFromHL:sum(packetBytes) 	1688816
attr interpolationmode  none
attr source  rxPkFromHL
attr title  "packet bytes from higher layer, sum(packetBytes)"
scalar PacketBouncewithTCP.client.eth[0].mac 	rxPausePkUnits:count 	0
attr interpolationmode  none
attr title  "pause units received, count"
scalar PacketBouncewithTCP.client.eth[0].mac 	rxPausePkUnits:sum 	0
attr interpolationmode  none
attr title  "pause units received, sum"
scalar PacketBouncewithTCP.client.eth[0].mac 	txPausePkUnits:count 	0
attr interpolationmode  none
attr title  "pause units sent, count"
scalar PacketBouncewithTCP.client.eth[0].mac 	txPausePkUnits:sum 	0
attr interpolationmode  none
attr title  "pause units sent, sum"
scalar PacketBouncewithTCP.client.eth[0].mac 	rxPkOk:count 	24089
attr interpolationmode  none
attr source  rxPkOk
attr title  "packets received OK, count"
scalar PacketBouncewithTCP.client.eth[0].mac 	rxPkOk:sum(packetBytes) 	14269118
attr interpolationmode  none
attr source  rxPkOk
attr title  "packets received OK, sum(packetBytes)"
scalar PacketBouncewithTCP.client.eth[0].mac 	txPk:count 	24092
attr interpolationmode  none
attr source  txPk
attr title  "packets transmitted, count"
scalar PacketBouncewithTCP.client.eth[0].mac 	txPk:sum(packetBytes) 	1688816
attr interpolationmode  none
attr source  txPk
attr title  "packets transmitted, sum(packetBytes)"
scalar PacketBouncewithTCP.client.eth[0].mac 	passedUpPk:count 	24089
attr interpolationmode  none
attr source  packetSentToUpper
attr title  "packets passed to higher layer, count"
scalar PacketBouncewithTCP.client.eth[0].mac 	passedUpPk:sum(packetBytes) 	14269118
attr interpolationmode  none
attr source  packetSentToUpper
attr title  "packets passed to higher layer, sum(packetBytes)"
statistic PacketBouncewithTCP.client.eth[0].encap 	reversePassback:histogram
field count 0
field mean nan
field stddev nan
field sum 0
field sqrsum 0
field min nan
field max nan
attr interpolationmode  none
attr title  "SHI: reverse passback number of frame, histogram"
bin	-INF	0
bin	-0.5	0
bin	-0.46666666666667	0
bin	-0.43333333333333	0
bin	-0.4	0
bin	-0.36666666666667	0
bin	-0.33333333333333	0
bin	-0.3	0
bin	-0.26666666666667	0
bin	-0.23333333333333	0
bin	-0.2	0
bin	-0.16666666666667	0
bin	-0.13333333333333	0
bin	-0.1	0
bin	-0.066666666666667	0
bin	-0.033333333333333	0
bin	0	0
bin	0.033333333333333	0
bin	0.066666666666667	0
bin	0.1	0
bin	0.13333333333333	0
bin	0.16666666666667	0
bin	0.2	0
bin	0.23333333333333	0
bin	0.26666666666667	0
bin	0.3	0
bin	0.33333333333333	0
bin	0.36666666666667	0
bin	0.4	0
bin	0.43333333333333	0
bin	0.46666666666667	0
bin	0.5	0
scalar PacketBouncewithTCP.client.eth[0].encap 	pauseSent:count 	0
attr title  "pause sent, count"
scalar PacketBouncewithTCP.client.eth[0].encap 	pauseSent:sum 	0
attr title  "pause sent, sum"
scalar PacketBouncewithTCP.client.eth[0].encap 	decapPk:count 	24089
attr interpolationmode  none
attr source  decapPk
attr title  "packets decapsulated, count"
scalar PacketBouncewithTCP.client.eth[0].encap 	decapPk:sum(packetBytes) 	13835444
attr interpolationmode  none
attr source  decapPk
attr title  "packets decapsulated, sum(packetBytes)"
scalar PacketBouncewithTCP.client.eth[0].encap 	encapPk:count 	24092
attr interpolationmode  none
attr source  encapPk
attr title  "packets encapsulated, count"
scalar PacketBouncewithTCP.client.eth[0].encap 	encapPk:sum(packetBytes) 	1255088
attr interpolationmode  none
attr source  encapPk
attr title  "packets encapsulated, sum(packetBytes)"
scalar PacketBouncewithTCP.client.tcpApp[0] 	numActiveSessions:max 	1
attr interpolationmode  sample-hold
attr source  sum(connect)
attr title  "number of active sessions, max"
scalar PacketBouncewithTCP.client.tcpApp[0] 	numActiveSessions:timeavg 	0.012823047174099
attr interpolationmode  sample-hold
attr source  sum(connect)
attr title  "number of active sessions, timeavg"
scalar PacketBouncewithTCP.client.tcpApp[0] 	numSessions:last 	1
attr source  sum(connect+1)/2
attr title  "total number of sessions, last"
scalar PacketBouncewithTCP.client.tcpApp[0] 	rcvdPk:count 	4
attr interpolationmode  none
attr source  rcvdPk
attr title  "packets received, count"
scalar PacketBouncewithTCP.client.tcpApp[0] 	rcvdPk:sum(packetBytes) 	4194304
attr interpolationmode  none
attr source  rcvdPk
attr title  "packets received, sum(packetBytes)"
statistic PacketBouncewithTCP.client.tcpApp[0] 	endToEndDelay:histogram
field count 4
field mean 0.029374174
field stddev 9.8210396273183e-05
field sum 0.117496696
field sqrsum 0.0034513973285749
field min 0.029268344
field max 0.029464232
attr interpolationmode  none
attr source  messageAge(rcvdPk)
attr title  "end-to-end delay, histogram"
attr unit  s
bin	-INF	0
bin	0.0291704	0
bin	0.0291834592	0
bin	0.0291965184	0
bin	0.0292095776	0
bin	0.0292226368	0
bin	0.029235696	0
bin	0.0292487552	0
bin	0.0292618144	1
bin	0.0292748736	0
bin	0.0292879328	0
bin	0.029300992	1
bin	0.0293140512	0
bin	0.0293271104	0
bin	0.0293401696	0
bin	0.0293532288	0
bin	0.029366288	0
bin	0.0293793472	0
bin	0.0293924064	0
bin	0.0294054656	0
bin	0.0294185248	0
bin	0.029431584	0
bin	0.0294446432	1
bin	0.0294577024	1
bin	0.0294707616	0
bin	0.0294838208	0
bin	0.02949688	0
bin	0.0295099392	0
bin	0.0295229984	0
bin	0.0295360576	0
bin	0.0295491168	0
bin	0.029562176	0
scalar PacketBouncewithTCP.client.tcpApp[0] 	sentPk:count 	4
attr interpolationmode  none
attr source  sentPk
attr title  "packets sent, count"
scalar PacketBouncewithTCP.client.tcpApp[0] 	sentPk:sum(packetBytes) 	800
attr interpolationmode  none
attr source  sentPk
attr title  "packets sent, sum(packetBytes)"
scalar PacketBouncewithTCP.client.tcpApp[1] 	numActiveSessions:max 	1
attr interpolationmode  sample-hold
attr source  sum(connect)
attr title  "number of active sessions, max"
scalar PacketBouncewithTCP.client.tcpApp[1] 	numActiveSessions:timeavg 	0.012822922625277
attr interpolationmode  sample-hold
attr source  sum(connect)
attr title  "number of active sessions, timeavg"
scalar PacketBouncewithTCP.client.tcpApp[1] 	numSessions:last 	1
attr source  sum(connect+1)/2
attr title  "total number of sessions, last"
scalar PacketBouncewithTCP.client.tcpApp[1] 	rcvdPk:count 	4
attr interpolationmode  none
attr source  rcvdPk
attr title  "packets received, count"
scalar PacketBouncewithTCP.client.tcpApp[1] 	rcvdPk:sum(packetBytes) 	4194304
attr interpolationmode  none
attr source  rcvdPk
attr title  "packets received, sum(packetBytes)"
statistic PacketBouncewithTCP.client.tcpApp[1] 	endToEndDelay:histogram
field count 4
field mean 0.029366416
field stddev 0.00012389258022481
field sum 0.117465664
field sqrsum 0.0034495916028545
field min 0.029254416
field max 0.02954356
attr interpolationmode  none
attr source  messageAge(rcvdPk)
attr title  "end-to-end delay, histogram"
attr unit  s
bin	-INF	0
bin	0.029109844	0
bin	0.029129120266667	0
bin	0.029148396533333	0
bin	0.0291676728	0
bin	0.029186949066667	0
bin	0.029206225333333	0
bin	0.0292255016	0
bin	0.029244777866667	1
bin	0.029264054133333	0
bin	0.0292833304	0
bin	0.029302606666667	0
bin	0.029321882933333	2
bin	0.0293411592	0
bin	0.029360435466667	0
bin	0.029379711733333	0
bin	0.029398988	0
bin	0.029418264266667	0
bin	0.029437540533333	0
bin	0.0294568168	0
bin	0.029476093066667	0
bin	0.029495369333333	0
bin	0.0295146456	0
bin	0.029533921866667	1
bin	0.029553198133333	0
bin	0.0295724744	0
bin	0.029591750666667	0
bin	0.029611026933333	0
bin	0.0296303032	0
bin	0.029649579466667	0
bin	0.029668855733333	0
bin	0.029688132	0
scalar PacketBouncewithTCP.client.tcpApp[1] 	sentPk:count 	4
attr interpolationmode  none
attr source  sentPk
attr title  "packets sent, count"
scalar PacketBouncewithTCP.client.tcpApp[1] 	sentPk:sum(packetBytes) 	800
attr interpolationmode  none
attr source  sentPk
attr title  "packets sent, sum(packetBytes)"
scalar PacketBouncewithTCP.client.tcpApp[2] 	numActiveSessions:max 	1
attr interpolationmode  sample-hold
attr source  sum(connect)
attr title  "number of active sessions, max"
scalar PacketBouncewithTCP.client.tcpApp[2] 	numActiveSessions:timeavg 	0.012822209916442
attr interpolationmode  sample-hold
attr source  sum(connect)
attr title  "number of active sessions, timeavg"
scalar PacketBouncewithTCP.client.tcpApp[2] 	numSessions:last 	1
attr source  sum(connect+1)/2
attr title  "total number of sessions, last"
scalar PacketBouncewithTCP.client.tcpApp[2] 	rcvdPk:count 	4
attr interpolationmode  none
attr source  rcvdPk
attr title  "packets received, count"
scalar PacketBouncewithTCP.client.tcpApp[2] 	rcvdPk:sum(packetBytes) 	4194304
attr interpolationmode  none
attr source  rcvdPk
attr title  "packets received, sum(packetBytes)"
statistic PacketBouncewithTCP.client.tcpApp[2] 	endToEndDelay:histogram
field count 4
field mean 0.02932291
field stddev 4.6636236495745e-05
field sum 0.11729164
field sqrsum 0.0034393387282881
field min 0.029262824
field max 0.029376448
attr interpolationmode  none
attr source  messageAge(rcvdPk)
attr title  "end-to-end delay, histogram"
attr unit  s
bin	-INF	0
bin	0.029206012	0
bin	0.029213586933333	0
bin	0.029221161866667	0
bin	0.0292287368	0
bin	0.029236311733333	0
bin	0.029243886666667	0
bin	0.0292514616	0
bin	0.029259036533333	1
bin	0.029266611466667	0
bin	0.0292741864	0
bin	0.029281761333333	0
bin	0.029289336266667	0
bin	0.0292969112	0
bin	0.029304486133333	0
bin	0.029312061066667	0
bin	0.029319636	1
bin	0.029327210933333	1
bin	0.029334785866667	0
bin	0.0293423608	0
bin	0.029349935733333	0
bin	0.029357510666667	0
bin	0.0293650856	0
bin	0.029372660533333	1
bin	0.029380235466667	0
bin	0.0293878104	0
bin	0.029395385333333	0
bin	0.029402960266667	0
bin	0.0294105352	0
bin	0.029418110133333	0
bin	0.029425685066667	0
bin	0.02943326	0
scalar PacketBouncewithTCP.client.tcpApp[2] 	sentPk:count 	4
attr interpolationmode  none
attr source  sentPk
attr title  "packets sent, count"
scalar PacketBouncewithTCP.client.tcpApp[2] 	sentPk:sum(packetBytes) 	800
attr interpolationmode  none
attr source  sentPk
attr title  "packets sent, sum(packetBytes)"
scalar PacketBouncewithTCP.server1.networkLayer.arp 	failedARPResolution:count 	0
attr title  "ARP failed resolutions, count"
scalar PacketBouncewithTCP.server1.networkLayer.arp 	completedARPResolution:count 	3
attr title  "ARP completed resolutions, count"
scalar PacketBouncewithTCP.server1.networkLayer.arp 	initiatedARPResolution:count 	0
attr title  "ARP initiated resolutions, count"
scalar PacketBouncewithTCP.server1.networkLayer.arp 	sentReply:count 	1
attr title  "ARP replies sent, count"
scalar PacketBouncewithTCP.server1.networkLayer.arp 	sentReq:count 	0
attr title  "ARP request sent, count"
scalar PacketBouncewithTCP.server1.lo0.lo 	droppedPkBitError:count 	0
attr interpolationmode  none
attr source  dropPkBitError
attr title  "packets dropped/bit error, count"
scalar PacketBouncewithTCP.server1.lo0.lo 	droppedPkBitError:sum(packetBytes) 	0
attr interpolationmode  none
attr source  dropPkBitError
attr title  "packets dropped/bit error, sum(packetBytes)"
scalar PacketBouncewithTCP.server1.lo0.lo 	rcvdPkFromHL:count 	0
attr interpolationmode  none
attr source  packetReceivedFromUpper
attr title  "packets received from higher layer, count"
scalar PacketBouncewithTCP.server1.lo0.lo 	rcvdPkFromHL:sum(packetBytes) 	0
attr interpolationmode  none
attr source  packetReceivedFromUpper
attr title  "packets received from higher layer, sum(packetBytes)"
scalar PacketBouncewithTCP.server1.lo0.lo 	passedUpPk:count 	0
attr interpolationmode  none
attr source  packetSentToUpper
attr title  "packets passed to higher layer, count"
scalar PacketBouncewithTCP.server1.lo0.lo 	passedUpPk:sum(packetBytes) 	0
attr interpolationmode  none
attr source  packetSentToUpper
attr title  "packets passed to higher layer, sum(packetBytes)"
statistic PacketBouncewithTCP.server1.eth[0].queue.pauseQueue 	queueingTime:histogram
field count 0
field mean nan
field stddev nan
field sum 0
field sqrsum 0
field min nan
field max nan
attr interpolationmode  none
attr title  "queueing time, histogram"
bin	-INF	0
bin	-0.5	0
bin	-0.46666666666667	0
bin	-0.43333333333333	0
bin	-0.4	0
bin	-0.36666666666667	0
bin	-0.33333333333333	0
bin	-0.3	0
bin	-0.26666666666667	0
bin	-0.23333333333333	0
bin	-0.2	0
bin	-0.16666666666667	0
bin	-0.13333333333333	0
bin	-0.1	0
bin	-0.066666666666667	0
bin	-0.033333333333333	0
bin	0	0
bin	0.033333333333333	0
bin	0.066666666666667	0
bin	0.1	0
bin	0.13333333333333	0
bin	0.16666666666667	0
bin	0.2	0
bin	0.23333333333333	0
bin	0.26666666666667	0
bin	0.3	0
bin	0.33333333333333	0
bin	0.36666666666667	0
bin	0.4	0
bin	0.43333333333333	0
bin	0.46666666666667	0
bin	0.5	0
scalar PacketBouncewithTCP.server1.eth[0].queue.pauseQueue 	dropPk:count 	0
attr interpolationmode  none
attr source  dropPkByQueue
attr title  "dropped packets, count"
scalar PacketBouncewithTCP.server1.eth[0].queue.pauseQueue 	dropPk:sum(packetBytes) 	0
attr interpolationmode  none
attr source  dropPkByQueue
attr title  "dropped packets, sum(packetBytes)"
scalar PacketBouncewithTCP.server1.eth[0].queue.pauseQueue 	queueLength:max 	0
attr interpolationmode  sample-hold
attr title  "queue length, max"
scalar PacketBouncewithTCP.server1.eth[0].queue.pauseQueue 	queueLength:timeavg 	0
attr interpolationmode  sample-hold
attr title  "queue length, timeavg"
scalar PacketBouncewithTCP.server1.eth[0].queue.pauseQueue 	rcvdPk:count 	0
attr interpolationmode  none
attr title  "received packets, count"
scalar PacketBouncewithTCP.server1.eth[0].queue.pauseQueue 	rcvdPk:sum(packetBytes) 	0
attr interpolationmode  none
attr title  "received packets, sum(packetBytes)"
statistic PacketBouncewithTCP.server1.eth[0].queue.passBackQueue 	queueingTime:histogram
field count 0
field mean nan
field stddev nan
field sum 0
field sqrsum 0
field min nan
field max nan
attr interpolationmode  none
attr title  "queueing time, histogram"
bin	-INF	0
bin	-0.5	0
bin	-0.46666666666667	0
bin	-0.43333333333333	0
bin	-0.4	0
bin	-0.36666666666667	0
bin	-0.33333333333333	0
bin	-0.3	0
bin	-0.26666666666667	0
bin	-0.23333333333333	0
bin	-0.2	0
bin	-0.16666666666667	0
bin	-0.13333333333333	0
bin	-0.1	0
bin	-0.066666666666667	0
bin	-0.033333333333333	0
bin	0	0
bin	0.033333333333333	0
bin	0.066666666666667	0
bin	0.1	0
bin	0.13333333333333	0
bin	0.16666666666667	0
bin	0.2	0
bin	0.23333333333333	0
bin	0.26666666666667	0
bin	0.3	0
bin	0.33333333333333	0
bin	0.36666666666667	0
bin	0.4	0
bin	0.43333333333333	0
bin	0.46666666666667	0
bin	0.5	0
scalar PacketBouncewithTCP.server1.eth[0].queue.passBackQueue 	dropPk:count 	0
attr interpolationmode  none
attr source  dropPkByQueue
attr title  "dropped packets, count"
scalar PacketBouncewithTCP.server1.eth[0].queue.passBackQueue 	dropPk:sum(packetBytes) 	0
attr interpolationmode  none
attr source  dropPkByQueue
attr title  "dropped packets, sum(packetBytes)"
scalar PacketBouncewithTCP.server1.eth[0].queue.passBackQueue 	queueLength:max 	0
attr interpolationmode  sample-hold
attr title  "queue length, max"
scalar PacketBouncewithTCP.server1.eth[0].queue.passBackQueue 	queueLength:timeavg 	0
attr interpolationmode  sample-hold
attr title  "queue length, timeavg"
scalar PacketBouncewithTCP.server1.eth[0].queue.passBackQueue 	rcvdPk:count 	0
attr interpolationmode  none
attr title  "received packets, count"
scalar PacketBouncewithTCP.server1.eth[0].queue.passBackQueue 	rcvdPk:sum(packetBytes) 	0
attr interpolationmode  none
attr title  "received packets, sum(packetBytes)"
statistic PacketBouncewithTCP.server1.eth[0].queue.dataQueue 	queueingTime:histogram
field count 8034
field mean 0.00021721155041075
field stddev 0.00012448961577003
field sum 1.745077596
field sqrsum 0.00050354374861714
field min 0
field max 0.00041824
attr interpolationmode  none
attr title  "queueing time, histogram"
bin	-INF	0
bin	-9.824e-06	0
bin	-8.5141333333333e-06	0
bin	-7.2042666666667e-06	0
bin	-5.8944e-06	0
bin	-4.5845333333333e-06	0
bin	-3.2746666666667e-06	0
bin	-1.9648e-06	0
bin	-6.5493333333333e-07	179
bin	6.5493333333333e-07	7
bin	1.9648e-06	3
bin	3.2746666666667e-06	0
bin	4.5845333333333e-06	119
bin	5.8944e-06	1
bin	7.2042666666667e-06	0
bin	8.5141333333333e-06	0
bin	9.824e-06	110
bin	1.1133866666667e-05	0
bin	1.2443733333333e-05	2
bin	1.37536e-05	101
bin	1.5063466666667e-05	3
bin	1.6373333333333e-05	1
bin	1.76832e-05	0
bin	1.8993066666667e-05	83
bin	2.0302933333333e-05	4
bin	2.16128e-05	0
bin	2.2922666666667e-05	1
bin	2.4232533333333e-05	81
bin	2.55424e-05	0
bin	2.6852266666667e-05	0
bin	2.8162133333333e-05	0
bin	2.9472e-05	7339
scalar PacketBouncewithTCP.server1.eth[0].queue.dataQueue 	dropPk:count 	0
attr interpolationmode  none
attr source  dropPkByQueue
attr title  "dropped packets, count"
scalar PacketBouncewithTCP.server1.eth[0].queue.dataQueue 	dropPk:sum(packetBytes) 	0
attr interpolationmode  none
attr source  dropPkByQueue
attr title  "dropped packets, sum(packetBytes)"
scalar PacketBouncewithTCP.server1.eth[0].queue.dataQueue 	queueLength:max 	86
attr interpolationmode  sample-hold
attr title  "queue length, max"
scalar PacketBouncewithTCP.server1.eth[0].queue.dataQueue 	queueLength:timeavg 	0.0071779180638066
attr interpolationmode  sample-hold
attr title  "queue length, timeavg"
scalar PacketBouncewithTCP.server1.eth[0].queue.dataQueue 	rcvdPk:count 	8034
attr interpolationmode  none
attr title  "received packets, count"
scalar PacketBouncewithTCP.server1.eth[0].queue.dataQueue 	rcvdPk:sum(packetBytes) 	4756676
attr interpolationmode  none
attr title  "received packets, sum(packetBytes)"
scalar PacketBouncewithTCP.server1.eth[0].mac 	"simulated time" 	243.117514088
scalar PacketBouncewithTCP.server1.eth[0].mac 	full-duplex 	1
scalar PacketBouncewithTCP.server1.eth[0].mac 	"frames/sec sent" 	33.045747568363
scalar PacketBouncewithTCP.server1.eth[0].mac 	"frames/sec rcvd" 	33.058087279927
scalar PacketBouncewithTCP.server1.eth[0].mac 	"bits/sec sent" 	156522.6929156
scalar PacketBouncewithTCP.server1.eth[0].mac 	"bits/sec rcvd" 	18538.195476812
scalar PacketBouncewithTCP.server1.eth[0].mac 	"rx channel idle (%)" 	99.997934608694
scalar PacketBouncewithTCP.server1.eth[0].mac 	"rx channel utilization (%)" 	0.0020653913062728
scalar PacketBouncewithTCP.server1.eth[0].mac 	droppedPkNotForUs:count 	0
attr interpolationmode  none
attr source  dropPkNotForUs
attr title  "packets dropped/not for us, count"
scalar PacketBouncewithTCP.server1.eth[0].mac 	droppedPkNotForUs:sum(packetBytes) 	0
attr interpolationmode  none
attr source  dropPkNotForUs
attr title  "packets dropped/not for us, sum(packetBytes)"
scalar PacketBouncewithTCP.server1.eth[0].mac 	droppedPkIfaceDown:count 	0
attr interpolationmode  none
attr source  dropPkIfaceDown
attr title  "packets dropped/interface down, count"
scalar PacketBouncewithTCP.server1.eth[0].mac 	droppedPkIfaceDown:sum(packetBytes) 	0
attr interpolationmode  none
attr source  dropPkIfaceDown
attr title  "packets dropped/interface down, sum(packetBytes)"
scalar PacketBouncewithTCP.server1.eth[0].mac 	droppedPkBitError:count 	0
attr interpolationmode  none
attr source  dropPkBitError
attr title  "packets dropped/bit error, count"
scalar PacketBouncewithTCP.server1.eth[0].mac 	droppedPkBitError:sum(packetBytes) 	0
attr interpolationmode  none
attr source  dropPkBitError
attr title  "packets dropped/bit error, sum(packetBytes)"
scalar PacketBouncewithTCP.server1.eth[0].mac 	rxPkFromHL:count 	8034
attr interpolationmode  none
attr source  rxPkFromHL
attr title  "packet bytes from higher layer, count"
scalar PacketBouncewithTCP.server1.eth[0].mac 	rxPkFromHL:sum(packetBytes) 	4756676
attr interpolationmode  none
attr source  rxPkFromHL
attr title  "packet bytes from higher layer, sum(packetBytes)"
scalar PacketBouncewithTCP.server1.eth[0].mac 	rxPausePkUnits:count 	0
attr interpolationmode  none
attr title  "pause units received, count"
scalar PacketBouncewithTCP.server1.eth[0].mac 	rxPausePkUnits:sum 	0
attr interpolationmode  none
attr title  "pause units received, sum"
scalar PacketBouncewithTCP.server1.eth[0].mac 	txPausePkUnits:count 	0
attr interpolationmode  none
attr title  "pause units sent, count"
scalar PacketBouncewithTCP.server1.eth[0].mac 	txPausePkUnits:sum 	0
attr interpolationmode  none
attr title  "pause units sent, sum"
scalar PacketBouncewithTCP.server1.eth[0].mac 	rxPkOk:count 	8037
attr interpolationmode  none
attr source  rxPkOk
attr title  "packets received OK, count"
scalar PacketBouncewithTCP.server1.eth[0].mac 	rxPkOk:sum(packetBytes) 	563370
attr interpolationmode  none
attr source  rxPkOk
attr title  "packets received OK, sum(packetBytes)"
scalar PacketBouncewithTCP.server1.eth[0].mac 	txPk:count 	8034
attr interpolationmode  none
attr source  txPk
attr title  "packets transmitted, count"
scalar PacketBouncewithTCP.server1.eth[0].mac 	txPk:sum(packetBytes) 	4756676
attr interpolationmode  none
attr source  txPk
attr title  "packets transmitted, sum(packetBytes)"
scalar PacketBouncewithTCP.server1.eth[0].mac 	passedUpPk:count 	8037
attr interpolationmode  none
attr source  packetSentToUpper
attr title  "packets passed to higher layer, count"
scalar PacketBouncewithTCP.server1.eth[0].mac 	passedUpPk:sum(packetBytes) 	563370
attr interpolationmode  none
attr source  packetSentToUpper
attr title  "packets passed to higher layer, sum(packetBytes)"
statistic PacketBouncewithTCP.server1.eth[0].encap 	reversePassback:histogram
field count 0
field mean nan
field stddev nan
field sum 0
field sqrsum 0
field min nan
field max nan
attr interpolationmode  none
attr title  "SHI: reverse passback number of frame, histogram"
bin	-INF	0
bin	-0.5	0
bin	-0.46666666666667	0
bin	-0.43333333333333	0
bin	-0.4	0
bin	-0.36666666666667	0
bin	-0.33333333333333	0
bin	-0.3	0
bin	-0.26666666666667	0
bin	-0.23333333333333	0
bin	-0.2	0
bin	-0.16666666666667	0
bin	-0.13333333333333	0
bin	-0.1	0
bin	-0.066666666666667	0
bin	-0.033333333333333	0
bin	0	0
bin	0.033333333333333	0
bin	0.066666666666667	0
bin	0.1	0
bin	0.13333333333333	0
bin	0.16666666666667	0
bin	0.2	0
bin	0.23333333333333	0
bin	0.26666666666667	0
bin	0.3	0
bin	0.33333333333333	0
bin	0.36666666666667	0
bin	0.4	0
bin	0.43333333333333	0
bin	0.46666666666667	0
bin	0.5	0
scalar PacketBouncewithTCP.server1.eth[0].encap 	pauseSent:count 	0
attr title  "pause sent, count"
scalar PacketBouncewithTCP.server1.eth[0].encap 	pauseSent:sum 	0
attr title  "pause sent, sum"
scalar PacketBouncewithTCP.server1.eth[0].encap 	decapPk:count 	8037
attr interpolationmode  none
attr source  decapPk
attr title  "packets decapsulated, count"
scalar PacketBouncewithTCP.server1.eth[0].encap 	decapPk:sum(packetBytes) 	418644
attr interpolationmode  none
attr source  decapPk
attr title  "packets decapsulated, sum(packetBytes)"
scalar PacketBouncewithTCP.server1.eth[0].encap 	encapPk:count 	8034
attr interpolationmode  none
attr source  encapPk
attr title  "packets encapsulated, count"
scalar PacketBouncewithTCP.server1.eth[0].encap 	encapPk:sum(packetBytes) 	4612040
attr interpolationmode  none
attr source  encapPk
attr title  "packets encapsulated, sum(packetBytes)"
scalar PacketBouncewithTCP.server1.tcpApp[0] 	rcvdPk:count 	4
attr interpolationmode  none
attr source  rcvdPk
attr title  "packets received, count"
scalar PacketBouncewithTCP.server1.tcpApp[0] 	rcvdPk:sum(packetBytes) 	800
attr interpolationmode  none
attr source  rcvdPk
attr title  "packets received, sum(packetBytes)"
statistic PacketBouncewithTCP.server1.tcpApp[0] 	endToEndDelay:histogram
field count 4
field mean 9.55e-06
field stddev 3.1376424270469e-07
field sum 3.82e-05
field sqrsum 3.65105344e-10
field min 9.096e-06
field max 9.816e-06
attr interpolationmode  none
attr source  messageAge(rcvdPk)
attr title  "end-to-end delay, histogram"
attr unit  s
bin	-INF	0
bin	8.736e-06	0
bin	8.784e-06	0
bin	8.832e-06	0
bin	8.88e-06	0
bin	8.928e-06	0
bin	8.976e-06	0
bin	9.024e-06	0
bin	9.072e-06	1
bin	9.12e-06	0
bin	9.168e-06	0
bin	9.216e-06	0
bin	9.264e-06	0
bin	9.312e-06	0
bin	9.36e-06	0
bin	9.408e-06	0
bin	9.456e-06	0
bin	9.504e-06	0
bin	9.552e-06	0
bin	9.6e-06	1
bin	9.648e-06	1
bin	9.696e-06	0
bin	9.744e-06	0
bin	9.792e-06	1
bin	9.84e-06	0
bin	9.888e-06	0
bin	9.936e-06	0
bin	9.984e-06	0
bin	1.0032e-05	0
bin	1.008e-05	0
bin	1.0128e-05	0
bin	1.0176e-05	0
scalar PacketBouncewithTCP.server1.tcpApp[0] 	sentPk:count 	4
attr interpolationmode  none
attr source  sentPk
attr title  "packets sent, count"
scalar PacketBouncewithTCP.server1.tcpApp[0] 	sentPk:sum(packetBytes) 	4194304
attr interpolationmode  none
attr source  sentPk
attr title  "packets sent, sum(packetBytes)"
scalar PacketBouncewithTCP.server2.networkLayer.arp 	failedARPResolution:count 	0
attr title  "ARP failed resolutions, count"
scalar PacketBouncewithTCP.server2.networkLayer.arp 	completedARPResolution:count 	2
attr title  "ARP completed resolutions, count"
scalar PacketBouncewithTCP.server2.networkLayer.arp 	initiatedARPResolution:count 	0
attr title  "ARP initiated resolutions, count"
scalar PacketBouncewithTCP.server2.networkLayer.arp 	sentReply:count 	1
attr title  "ARP replies sent, count"
scalar PacketBouncewithTCP.server2.networkLayer.arp 	sentReq:count 	0
attr title  "ARP request sent, count"
scalar PacketBouncewithTCP.server2.lo0.lo 	droppedPkBitError:count 	0
attr interpolationmode  none
attr source  dropPkBitError
attr title  "packets dropped/bit error, count"
scalar PacketBouncewithTCP.server2.lo0.lo 	droppedPkBitError:sum(packetBytes) 	0
attr interpolationmode  none
attr source  dropPkBitError
attr title  "packets dropped/bit error, sum(packetBytes)"
scalar PacketBouncewithTCP.server2.lo0.lo 	rcvdPkFromHL:count 	0
attr interpolationmode  none
attr source  packetReceivedFromUpper
attr title  "packets received from higher layer, count"
scalar PacketBouncewithTCP.server2.lo0.lo 	rcvdPkFromHL:sum(packetBytes) 	0
attr interpolationmode  none
attr source  packetReceivedFromUpper
attr title  "packets received from higher layer, sum(packetBytes)"
scalar PacketBouncewithTCP.server2.lo0.lo 	passedUpPk:count 	0
attr interpolationmode  none
attr source  packetSentToUpper
attr title  "packets passed to higher layer, count"
scalar PacketBouncewithTCP.server2.lo0.lo 	passedUpPk:sum(packetBytes) 	0
attr interpolationmode  none
attr source  packetSentToUpper
attr title  "packets passed to higher layer, sum(packetBytes)"
statistic PacketBouncewithTCP.server2.eth[0].queue.pauseQueue 	queueingTime:histogram
field count 0
field mean nan
field stddev nan
field sum 0
field sqrsum 0
field min nan
field max nan
attr interpolationmode  none
attr title  "queueing time, histogram"
bin	-INF	0
bin	-0.5	0
bin	-0.46666666666667	0
bin	-0.43333333333333	0
bin	-0.4	0
bin	-0.36666666666667	0
bin	-0.33333333333333	0
bin	-0.3	0
bin	-0.26666666666667	0
bin	-0.23333333333333	0
bin	-0.2	0
bin	-0.16666666666667	0
bin	-0.13333333333333	0
bin	-0.1	0
bin	-0.066666666666667	0
bin	-0.033333333333333	0
bin	0	0
bin	0.033333333333333	0
bin	0.066666666666667	0
bin	0.1	0
bin	0.13333333333333	0
bin	0.16666666666667	0
bin	0.2	0
bin	0.23333333333333	0
bin	0.26666666666667	0
bin	0.3	0
bin	0.33333333333333	0
bin	0.36666666666667	0
bin	0.4	0
bin	0.43333333333333	0
bin	0.46666666666667	0
bin	0.5	0
scalar PacketBouncewithTCP.server2.eth[0].queue.pauseQueue 	dropPk:count 	0
attr interpolationmode  none
attr source  dropPkByQueue
attr title  "dropped packets, count"
scalar PacketBouncewithTCP.server2.eth[0].queue.pauseQueue 	dropPk:sum(packetBytes) 	0
attr interpolationmode  none
attr source  dropPkByQueue
attr title  "dropped packets, sum(packetBytes)"
scalar PacketBouncewithTCP.server2.eth[0].queue.pauseQueue 	queueLength:max 	0
attr interpolationmode  sample-hold
attr title  "queue length, max"
scalar PacketBouncewithTCP.server2.eth[0].queue.pauseQueue 	queueLength:timeavg 	0
attr interpolationmode  sample-hold
attr title  "queue length, timeavg"
scalar PacketBouncewithTCP.server2.eth[0].queue.pauseQueue 	rcvdPk:count 	0
attr interpolationmode  none
attr title  "received packets, count"
scalar PacketBouncewithTCP.server2.eth[0].queue.pauseQueue 	rcvdPk:sum(packetBytes) 	0
attr interpolationmode  none
attr title  "received packets, sum(packetBytes)"
statistic PacketBouncewithTCP.server2.eth[0].queue.passBackQueue 	queueingTime:histogram
field count 0
field mean nan
field stddev nan
field sum 0
field sqrsum 0
field min nan
field max nan
attr interpolationmode  none
attr title  "queueing time, histogram"
bin	-INF	0
bin	-0.5	0
bin	-0.46666666666667	0
bin	-0.43333333333333	0
bin	-0.4	0
bin	-0.36666666666667	0
bin	-0.33333333333333	0
bin	-0.3	0
bin	-0.26666666666667	0
bin	-0.23333333333333	0
bin	-0.2	0
bin	-0.16666666666667	0
bin	-0.13333333333333	0
bin	-0.1	0
bin	-0.066666666666667	0
bin	-0.033333333333333	0
bin	0	0
bin	0.033333333333333	0
bin	0.066666666666667	0
bin	0.1	0
bin	0.13333333333333	0
bin	0.16666666666667	0
bin	0.2	0
bin	0.23333333333333	0
bin	0.26666666666667	0
bin	0.3	0
bin	0.33333333333333	0
bin	0.36666666666667	0
bin	0.4	0
bin	0.43333333333333	0
bin	0.46666666666667	0
bin	0.5	0
scalar PacketBouncewithTCP.server2.eth[0].queue.passBackQueue 	dropPk:count 	0
attr interpolationmode  none
attr source  dropPkByQueue
attr title  "dropped packets, count"
scalar PacketBouncewithTCP.server2.eth[0].queue.passBackQueue 	dropPk:sum(packetBytes) 	0
attr interpolationmode  none
attr source  dropPkByQueue
attr title  "dropped packets, sum(packetBytes)"
scalar PacketBouncewithTCP.server2.eth[0].queue.passBackQueue 	queueLength:max 	0
attr interpolationmode  sample-hold
attr title  "queue length, max"
scalar PacketBouncewithTCP.server2.eth[0].queue.passBackQueue 	queueLength:timeavg 	0
attr interpolationmode  sample-hold
attr title  "queue length, timeavg"
scalar PacketBouncewithTCP.server2.eth[0].queue.passBackQueue 	rcvdPk:count 	0
attr interpolationmode  none
attr title  "received packets, count"
scalar PacketBouncewithTCP.server2.eth[0].queue.passBackQueue 	rcvdPk:sum(packetBytes) 	0
attr interpolationmode  none
attr title  "received packets, sum(packetBytes)"
statistic PacketBouncewithTCP.server2.eth[0].queue.dataQueue 	queueingTime:histogram
field count 8031
field mean 0.00021742882281161
field stddev 0.00012539155330454
field sum 1.746170876
field sqrsum 0.0005059239023668
field min 0
field max 0.00041824
attr interpolationmode  none
attr title  "queueing time, histogram"
bin	-INF	0
bin	-4.912e-06	0
bin	-4.2570666666667e-06	0
bin	-3.6021333333333e-06	0
bin	-2.9472e-06	0
bin	-2.2922666666667e-06	0
bin	-1.6373333333333e-06	0
bin	-9.824e-07	0
bin	-3.2746666666667e-07	200
bin	3.2746666666667e-07	5
bin	9.824e-07	0
bin	1.6373333333333e-06	1
bin	2.2922666666667e-06	1
bin	2.9472e-06	1
bin	3.6021333333333e-06	2
bin	4.2570666666667e-06	0
bin	4.912e-06	133
bin	5.5669333333333e-06	3
bin	6.2218666666667e-06	0
bin	6.8768e-06	0
bin	7.5317333333333e-06	0
bin	8.1866666666667e-06	1
bin	8.8416e-06	2
bin	9.4965333333333e-06	91
bin	1.0151466666667e-05	3
bin	1.08064e-05	0
bin	1.1461333333333e-05	0
bin	1.2116266666667e-05	0
bin	1.27712e-05	0
bin	1.3426133333333e-05	4
bin	1.4081066666667e-05	0
bin	1.4736e-05	7584
scalar PacketBouncewithTCP.server2.eth[0].queue.dataQueue 	dropPk:count 	0
attr interpolationmode  none
attr source  dropPkByQueue
attr title  "dropped packets, count"
scalar PacketBouncewithTCP.server2.eth[0].queue.dataQueue 	dropPk:sum(packetBytes) 	0
attr interpolationmode  none
attr source  dropPkByQueue
attr title  "dropped packets, sum(packetBytes)"
scalar PacketBouncewithTCP.server2.eth[0].queue.dataQueue 	queueLength:max 	86
attr interpolationmode  sample-hold
attr title  "queue length, max"
scalar PacketBouncewithTCP.server2.eth[0].queue.dataQueue 	queueLength:timeavg 	0.0071824149837595
attr interpolationmode  sample-hold
attr title  "queue length, timeavg"
scalar PacketBouncewithTCP.server2.eth[0].queue.dataQueue 	rcvdPk:count 	8031
attr interpolationmode  none
attr title  "received packets, count"
scalar PacketBouncewithTCP.server2.eth[0].queue.dataQueue 	rcvdPk:sum(packetBytes) 	4756466
attr interpolationmode  none
attr title  "received packets, sum(packetBytes)"
scalar PacketBouncewithTCP.server2.eth[0].mac 	"simulated time" 	243.117514088
scalar PacketBouncewithTCP.server2.eth[0].mac 	full-duplex 	1
scalar PacketBouncewithTCP.server2.eth[0].mac 	"frames/sec sent" 	33.033407856799
scalar PacketBouncewithTCP.server2.eth[0].mac 	"frames/sec rcvd" 	33.045747568363
scalar PacketBouncewithTCP.server2.eth[0].mac 	"bits/sec sent" 	156515.78267712
scalar PacketBouncewithTCP.server2.eth[0].mac 	"bits/sec rcvd" 	18531.285238336
scalar PacketBouncewithTCP.server2.eth[0].mac 	"rx channel idle (%)" 	99.997935378692
scalar PacketBouncewithTCP.server2.eth[0].mac 	"rx channel utilization (%)" 	0.0020646213082712
scalar PacketBouncewithTCP.server2.eth[0].mac 	droppedPkNotForUs:count 	0
attr interpolationmode  none
attr source  dropPkNotForUs
attr title  "packets dropped/not for us, count"
scalar PacketBouncewithTCP.server2.eth[0].mac 	droppedPkNotForUs:sum(packetBytes) 	0
attr interpolationmode  none
attr source  dropPkNotForUs
attr title  "packets dropped/not for us, sum(packetBytes)"
scalar PacketBouncewithTCP.server2.eth[0].mac 	droppedPkIfaceDown:count 	0
attr interpolationmode  none
attr source  dropPkIfaceDown
attr title  "packets dropped/interface down, count"
scalar PacketBouncewithTCP.server2.eth[0].mac 	droppedPkIfaceDown:sum(packetBytes) 	0
attr interpolationmode  none
attr source  dropPkIfaceDown
attr title  "packets dropped/interface down, sum(packetBytes)"
scalar PacketBouncewithTCP.server2.eth[0].mac 	droppedPkBitError:count 	0
attr interpolationmode  none
attr source  dropPkBitError
attr title  "packets dropped/bit error, count"
scalar PacketBouncewithTCP.server2.eth[0].mac 	droppedPkBitError:sum(packetBytes) 	0
attr interpolationmode  none
attr source  dropPkBitError
attr title  "packets dropped/bit error, sum(packetBytes)"
scalar PacketBouncewithTCP.server2.eth[0].mac 	rxPkFromHL:count 	8031
attr interpolationmode  none
attr source  rxPkFromHL
attr title  "packet bytes from higher layer, count"
scalar PacketBouncewithTCP.server2.eth[0].mac 	rxPkFromHL:sum(packetBytes) 	4756466
attr interpolationmode  none
attr source  rxPkFromHL
attr title  "packet bytes from higher layer, sum(packetBytes)"
scalar PacketBouncewithTCP.server2.eth[0].mac 	rxPausePkUnits:count 	0
attr interpolationmode  none
attr title  "pause units received, count"
scalar PacketBouncewithTCP.server2.eth[0].mac 	rxPausePkUnits:sum 	0
attr interpolationmode  none
attr title  "pause units received, sum"
scalar PacketBouncewithTCP.server2.eth[0].mac 	txPausePkUnits:count 	0
attr interpolationmode  none
attr title  "pause units sent, count"
scalar PacketBouncewithTCP.server2.eth[0].mac 	txPausePkUnits:sum 	0
attr interpolationmode  none
attr title  "pause units sent, sum"
scalar PacketBouncewithTCP.server2.eth[0].mac 	rxPkOk:count 	8034
attr interpolationmode  none
attr source  rxPkOk
attr title  "packets received OK, count"
scalar PacketBouncewithTCP.server2.eth[0].mac 	rxPkOk:sum(packetBytes) 	563160
attr interpolationmode  none
attr source  rxPkOk
attr title  "packets received OK, sum(packetBytes)"
scalar PacketBouncewithTCP.server2.eth[0].mac 	txPk:count 	8031
attr interpolationmode  none
attr source  txPk
attr title  "packets transmitted, count"
scalar PacketBouncewithTCP.server2.eth[0].mac 	txPk:sum(packetBytes) 	4756466
attr interpolationmode  none
attr source  txPk
attr title  "packets transmitted, sum(packetBytes)"
scalar PacketBouncewithTCP.server2.eth[0].mac 	passedUpPk:count 	8034
attr interpolationmode  none
attr source  packetSentToUpper
attr title  "packets passed to higher layer, count"
scalar PacketBouncewithTCP.server2.eth[0].mac 	passedUpPk:sum(packetBytes) 	563160
attr interpolationmode  none
attr source  packetSentToUpper
attr title  "packets passed to higher layer, sum(packetBytes)"
statistic PacketBouncewithTCP.server2.eth[0].encap 	reversePassback:histogram
field count 0
field mean nan
field stddev nan
field sum 0
field sqrsum 0
field min nan
field max nan
attr interpolationmode  none
attr title  "SHI: reverse passback number of frame, histogram"
bin	-INF	0
bin	-0.5	0
bin	-0.46666666666667	0
bin	-0.43333333333333	0
bin	-0.4	0
bin	-0.36666666666667	0
bin	-0.33333333333333	0
bin	-0.3	0
bin	-0.26666666666667	0
bin	-0.23333333333333	0
bin	-0.2	0
bin	-0.16666666666667	0
bin	-0.13333333333333	0
bin	-0.1	0
bin	-0.066666666666667	0
bin	-0.033333333333333	0
bin	0	0
bin	0.033333333333333	0
bin	0.066666666666667	0
bin	0.1	0
bin	0.13333333333333	0
bin	0.16666666666667	0
bin	0.2	0
bin	0.23333333333333	0
bin	0.26666666666667	0
bin	0.3	0
bin	0.33333333333333	0
bin	0.36666666666667	0
bin	0.4	0
bin	0.43333333333333	0
bin	0.46666666666667	0
bin	0.5	0
scalar PacketBouncewithTCP.server2.eth[0].encap 	pauseSent:count 	0
attr title  "pause sent, count"
scalar PacketBouncewithTCP.server2.eth[0].encap 	pauseSent:sum 	0
attr title  "pause sent, sum"
scalar PacketBouncewithTCP.server2.eth[0].encap 	decapPk:count 	8034
attr interpolationmode  none
attr source  decapPk
attr title  "packets decapsulated, count"
scalar PacketBouncewithTCP.server2.eth[0].encap 	decapPk:sum(packetBytes) 	418488
attr interpolationmode  none
attr source  decapPk
attr title  "packets decapsulated, sum(packetBytes)"
scalar PacketBouncewithTCP.server2.eth[0].encap 	encapPk:count 	8031
attr interpolationmode  none
attr source  encapPk
attr title  "packets encapsulated, count"
scalar PacketBouncewithTCP.server2.eth[0].encap 	encapPk:sum(packetBytes) 	4611884
attr interpolationmode  none
attr source  encapPk
attr title  "packets encapsulated, sum(packetBytes)"
scalar PacketBouncewithTCP.server2.tcpApp[0] 	rcvdPk:count 	4
attr interpolationmode  none
attr source  rcvdPk
attr title  "packets received, count"
scalar PacketBouncewithTCP.server2.tcpApp[0] 	rcvdPk:sum(packetBytes) 	800
attr interpolationmode  none
attr source  rcvdPk
attr title  "packets received, sum(packetBytes)"
statistic PacketBouncewithTCP.server2.tcpApp[0] 	endToEndDelay:histogram
field count 4
field mean 9.968e-06
field stddev 1.4418654583559e-06
field sum 3.9872e-05
field sqrsum 4.03681024e-10
field min 9.096e-06
field max 1.2104e-05
attr interpolationmode  none
attr source  messageAge(rcvdPk)
attr title  "end-to-end delay, histogram"
attr unit  s
bin	-INF	0
bin	7.592e-06	0
bin	7.7925333333333e-06	0
bin	7.9930666666667e-06	0
bin	8.1936e-06	0
bin	8.3941333333333e-06	0
bin	8.5946666666667e-06	0
bin	8.7952e-06	0
bin	8.9957333333333e-06	2
bin	9.1962666666667e-06	0
bin	9.3968e-06	1
bin	9.5973333333333e-06	0
bin	9.7978666666667e-06	0
bin	9.9984e-06	0
bin	1.0198933333333e-05	0
bin	1.0399466666667e-05	0
bin	1.06e-05	0
bin	1.0800533333333e-05	0
bin	1.1001066666667e-05	0
bin	1.12016e-05	0
bin	1.1402133333333e-05	0
bin	1.1602666666667e-05	0
bin	1.18032e-05	0
bin	1.2003733333333e-05	1
bin	1.2204266666667e-05	0
bin	1.24048e-05	0
bin	1.2605333333333e-05	0
bin	1.2805866666667e-05	0
bin	1.30064e-05	0
bin	1.3206933333333e-05	0
bin	1.3407466666667e-05	0
bin	1.3608e-05	0
scalar PacketBouncewithTCP.server2.tcpApp[0] 	sentPk:count 	4
attr interpolationmode  none
attr source  sentPk
attr title  "packets sent, count"
scalar PacketBouncewithTCP.server2.tcpApp[0] 	sentPk:sum(packetBytes) 	4194304
attr interpolationmode  none
attr source  sentPk
attr title  "packets sent, sum(packetBytes)"
scalar PacketBouncewithTCP.etherSwitch1.relayUnit 	"passback frame frequency" 	0
scalar PacketBouncewithTCP.etherSwitch1.relayUnit 	"processed frames" 	16071
scalar PacketBouncewithTCP.etherSwitch1.relayUnit 	"discarded frames" 	0
statistic PacketBouncewithTCP.etherSwitch1.relayUnit 	"Pass back hop distribution"
field count 0
field mean nan
field stddev nan
field sum 0
field sqrsum 0
field min nan
field max nan
attr type  int
bin	-INF	0
bin	-4	0
bin	-3	0
bin	-2	0
bin	-1	0
bin	0	0
bin	1	0
bin	2	0
bin	3	0
bin	4	0
statistic PacketBouncewithTCP.etherSwitch1.relayUnit 	"Total hop num distribution"
field count 0
field mean nan
field stddev nan
field sum 0
field sqrsum 0
field min nan
field max nan
attr type  int
bin	-INF	0
bin	0	0
bin	1	0
bin	2	0
bin	3	0
bin	4	0
bin	5	0
bin	6	0
bin	7	0
bin	8	0
bin	9	0
bin	10	0
bin	11	0
bin	12	0
bin	13	0
bin	14	0
bin	15	0
bin	16	0
bin	17	0
bin	18	0
bin	19	0
bin	20	0
bin	21	0
bin	22	0
bin	23	0
bin	24	0
bin	25	0
bin	26	0
bin	27	0
bin	28	0
bin	29	0
bin	30	0
bin	31	0
bin	32	0
bin	33	0
bin	34	0
bin	35	0
bin	36	0
bin	37	0
bin	38	0
bin	39	0
bin	40	0
bin	41	0
bin	42	0
bin	43	0
bin	44	0
bin	45	0
bin	46	0
bin	47	0
bin	48	0
bin	49	0
bin	50	0
bin	51	0
bin	52	0
bin	53	0
bin	54	0
bin	55	0
bin	56	0
bin	57	0
bin	58	0
bin	59	0
bin	60	0
bin	61	0
bin	62	0
bin	63	0
bin	64	0
bin	65	0
bin	66	0
bin	67	0
bin	68	0
bin	69	0
bin	70	0
bin	71	0
bin	72	0
bin	73	0
bin	74	0
bin	75	0
bin	76	0
bin	77	0
bin	78	0
bin	79	0
bin	80	0
bin	81	0
bin	82	0
bin	83	0
bin	84	0
bin	85	0
bin	86	0
bin	87	0
bin	88	0
bin	89	0
bin	90	0
bin	91	0
bin	92	0
bin	93	0
bin	94	0
bin	95	0
bin	96	0
bin	97	0
bin	98	0
bin	99	0
bin	100	0
statistic PacketBouncewithTCP.etherSwitch1.relayUnit 	totalHopNum:histogram
field count 0
field mean nan
field stddev nan
field sum 0
field sqrsum 0
field min nan
field max nan
attr interpolationmode  none
attr title  "total hop num distribution, histogram"
bin	-INF	0
bin	-0.5	0
bin	-0.46666666666667	0
bin	-0.43333333333333	0
bin	-0.4	0
bin	-0.36666666666667	0
bin	-0.33333333333333	0
bin	-0.3	0
bin	-0.26666666666667	0
bin	-0.23333333333333	0
bin	-0.2	0
bin	-0.16666666666667	0
bin	-0.13333333333333	0
bin	-0.1	0
bin	-0.066666666666667	0
bin	-0.033333333333333	0
bin	0	0
bin	0.033333333333333	0
bin	0.066666666666667	0
bin	0.1	0
bin	0.13333333333333	0
bin	0.16666666666667	0
bin	0.2	0
bin	0.23333333333333	0
bin	0.26666666666667	0
bin	0.3	0
bin	0.33333333333333	0
bin	0.36666666666667	0
bin	0.4	0
bin	0.43333333333333	0
bin	0.46666666666667	0
bin	0.5	0
statistic PacketBouncewithTCP.etherSwitch1.relayUnit 	maxPBHop:histogram
field count 0
field mean nan
field stddev nan
field sum 0
field sqrsum 0
field min nan
field max nan
attr interpolationmode  none
attr title  "pass back hop distribution, histogram"
bin	-INF	0
bin	-0.5	0
bin	-0.46666666666667	0
bin	-0.43333333333333	0
bin	-0.4	0
bin	-0.36666666666667	0
bin	-0.33333333333333	0
bin	-0.3	0
bin	-0.26666666666667	0
bin	-0.23333333333333	0
bin	-0.2	0
bin	-0.16666666666667	0
bin	-0.13333333333333	0
bin	-0.1	0
bin	-0.066666666666667	0
bin	-0.033333333333333	0
bin	0	0
bin	0.033333333333333	0
bin	0.066666666666667	0
bin	0.1	0
bin	0.13333333333333	0
bin	0.16666666666667	0
bin	0.2	0
bin	0.23333333333333	0
bin	0.26666666666667	0
bin	0.3	0
bin	0.33333333333333	0
bin	0.36666666666667	0
bin	0.4	0
bin	0.43333333333333	0
bin	0.46666666666667	0
bin	0.5	0
statistic PacketBouncewithTCP.etherSwitch1.eth[0].queue.pauseQueue 	queueingTime:histogram
field count 0
field mean nan
field stddev nan
field sum 0
field sqrsum 0
field min nan
field max nan
attr interpolationmode  none
attr title  "queueing time, histogram"
bin	-INF	0
bin	-0.5	0
bin	-0.46666666666667	0
bin	-0.43333333333333	0
bin	-0.4	0
bin	-0.36666666666667	0
bin	-0.33333333333333	0
bin	-0.3	0
bin	-0.26666666666667	0
bin	-0.23333333333333	0
bin	-0.2	0
bin	-0.16666666666667	0
bin	-0.13333333333333	0
bin	-0.1	0
bin	-0.066666666666667	0
bin	-0.033333333333333	0
bin	0	0
bin	0.033333333333333	0
bin	0.066666666666667	0
bin	0.1	0
bin	0.13333333333333	0
bin	0.16666666666667	0
bin	0.2	0
bin	0.23333333333333	0
bin	0.26666666666667	0
bin	0.3	0
bin	0.33333333333333	0
bin	0.36666666666667	0
bin	0.4	0
bin	0.43333333333333	0
bin	0.46666666666667	0
bin	0.5	0
scalar PacketBouncewithTCP.etherSwitch1.eth[0].queue.pauseQueue 	dropPk:count 	0
attr interpolationmode  none
attr source  dropPkByQueue
attr title  "dropped packets, count"
scalar PacketBouncewithTCP.etherSwitch1.eth[0].queue.pauseQueue 	dropPk:sum(packetBytes) 	0
attr interpolationmode  none
attr source  dropPkByQueue
attr title  "dropped packets, sum(packetBytes)"
scalar PacketBouncewithTCP.etherSwitch1.eth[0].queue.pauseQueue 	queueLength:max 	0
attr interpolationmode  sample-hold
attr title  "queue length, max"
scalar PacketBouncewithTCP.etherSwitch1.eth[0].queue.pauseQueue 	queueLength:timeavg 	0
attr interpolationmode  sample-hold
attr title  "queue length, timeavg"
scalar PacketBouncewithTCP.etherSwitch1.eth[0].queue.pauseQueue 	rcvdPk:count 	0
attr interpolationmode  none
attr title  "received packets, count"
scalar PacketBouncewithTCP.etherSwitch1.eth[0].queue.pauseQueue 	rcvdPk:sum(packetBytes) 	0
attr interpolationmode  none
attr title  "received packets, sum(packetBytes)"
statistic PacketBouncewithTCP.etherSwitch1.eth[0].queue.passBackQueue 	queueingTime:histogram
field count 0
field mean nan
field stddev nan
field sum 0
field sqrsum 0
field min nan
field max nan
attr interpolationmode  none
attr title  "queueing time, histogram"
bin	-INF	0
bin	-0.5	0
bin	-0.46666666666667	0
bin	-0.43333333333333	0
bin	-0.4	0
bin	-0.36666666666667	0
bin	-0.33333333333333	0
bin	-0.3	0
bin	-0.26666666666667	0
bin	-0.23333333333333	0
bin	-0.2	0
bin	-0.16666666666667	0
bin	-0.13333333333333	0
bin	-0.1	0
bin	-0.066666666666667	0
bin	-0.033333333333333	0
bin	0	0
bin	0.033333333333333	0
bin	0.066666666666667	0
bin	0.1	0
bin	0.13333333333333	0
bin	0.16666666666667	0
bin	0.2	0
bin	0.23333333333333	0
bin	0.26666666666667	0
bin	0.3	0
bin	0.33333333333333	0
bin	0.36666666666667	0
bin	0.4	0
bin	0.43333333333333	0
bin	0.46666666666667	0
bin	0.5	0
scalar PacketBouncewithTCP.etherSwitch1.eth[0].queue.passBackQueue 	dropPk:count 	0
attr interpolationmode  none
attr source  dropPkByQueue
attr title  "dropped packets, count"
scalar PacketBouncewithTCP.etherSwitch1.eth[0].queue.passBackQueue 	dropPk:sum(packetBytes) 	0
attr interpolationmode  none
attr source  dropPkByQueue
attr title  "dropped packets, sum(packetBytes)"
scalar PacketBouncewithTCP.etherSwitch1.eth[0].queue.passBackQueue 	queueLength:max 	0
attr interpolationmode  sample-hold
attr title  "queue length, max"
scalar PacketBouncewithTCP.etherSwitch1.eth[0].queue.passBackQueue 	queueLength:timeavg 	0
attr interpolationmode  sample-hold
attr title  "queue length, timeavg"
scalar PacketBouncewithTCP.etherSwitch1.eth[0].queue.passBackQueue 	rcvdPk:count 	0
attr interpolationmode  none
attr title  "received packets, count"
scalar PacketBouncewithTCP.etherSwitch1.eth[0].queue.passBackQueue 	rcvdPk:sum(packetBytes) 	0
attr interpolationmode  none
attr title  "received packets, sum(packetBytes)"
statistic PacketBouncewithTCP.etherSwitch1.eth[0].queue.dataQueue 	queueingTime:histogram
field count 8037
field mean 0
field stddev 0
field sum 0
field sqrsum 0
field min 0
field max 0
attr interpolationmode  none
attr title  "queueing time, histogram"
bin	-INF	0
bin	-0.5	0
bin	-0.46666666666667	0
bin	-0.43333333333333	0
bin	-0.4	0
bin	-0.36666666666667	0
bin	-0.33333333333333	0
bin	-0.3	0
bin	-0.26666666666667	0
bin	-0.23333333333333	0
bin	-0.2	0
bin	-0.16666666666667	0
bin	-0.13333333333333	0
bin	-0.1	0
bin	-0.066666666666667	0
bin	-0.033333333333333	0
bin	0	8037
bin	0.033333333333333	0
bin	0.066666666666667	0
bin	0.1	0
bin	0.13333333333333	0
bin	0.16666666666667	0
bin	0.2	0
bin	0.23333333333333	0
bin	0.26666666666667	0
bin	0.3	0
bin	0.33333333333333	0
bin	0.36666666666667	0
bin	0.4	0
bin	0.43333333333333	0
bin	0.46666666666667	0
bin	0.5	0
scalar PacketBouncewithTCP.etherSwitch1.eth[0].queue.dataQueue 	dropPk:count 	0
attr interpolationmode  none
attr source  dropPkByQueue
attr title  "dropped packets, count"
scalar PacketBouncewithTCP.etherSwitch1.eth[0].queue.dataQueue 	dropPk:sum(packetBytes) 	0
attr interpolationmode  none
attr source  dropPkByQueue
attr title  "dropped packets, sum(packetBytes)"
scalar PacketBouncewithTCP.etherSwitch1.eth[0].queue.dataQueue 	queueLength:max 	1
attr interpolationmode  sample-hold
attr title  "queue length, max"
scalar PacketBouncewithTCP.etherSwitch1.eth[0].queue.dataQueue 	queueLength:timeavg 	0
attr interpolationmode  sample-hold
attr title  "queue length, timeavg"
scalar PacketBouncewithTCP.etherSwitch1.eth[0].queue.dataQueue 	rcvdPk:count 	8037
attr interpolationmode  none
attr title  "received packets, count"
scalar PacketBouncewithTCP.etherSwitch1.eth[0].queue.dataQueue 	rcvdPk:sum(packetBytes) 	563370
attr interpolationmode  none
attr title  "received packets, sum(packetBytes)"
scalar PacketBouncewithTCP.etherSwitch1.eth[0].mac 	"simulated time" 	243.117514088
scalar PacketBouncewithTCP.etherSwitch1.eth[0].mac 	full-duplex 	1
scalar PacketBouncewithTCP.etherSwitch1.eth[0].mac 	"frames/sec sent" 	33.058087279927
scalar PacketBouncewithTCP.etherSwitch1.eth[0].mac 	"frames/sec rcvd" 	33.045747568363
scalar PacketBouncewithTCP.etherSwitch1.eth[0].mac 	"bits/sec sent" 	18538.195476812
scalar PacketBouncewithTCP.etherSwitch1.eth[0].mac 	"bits/sec rcvd" 	156522.6929156
scalar PacketBouncewithTCP.etherSwitch1.eth[0].mac 	"rx channel idle (%)" 	99.984136237924
scalar PacketBouncewithTCP.etherSwitch1.eth[0].mac 	"rx channel utilization (%)" 	0.015863762075997
scalar PacketBouncewithTCP.etherSwitch1.eth[0].mac 	"rx channel collision (%)" 	0
scalar PacketBouncewithTCP.etherSwitch1.eth[0].mac 	collisions 	0
scalar PacketBouncewithTCP.etherSwitch1.eth[0].mac 	backoffs 	0
scalar PacketBouncewithTCP.etherSwitch1.eth[0].mac 	droppedPkNotForUs:count 	0
attr interpolationmode  none
attr source  dropPkNotForUs
attr title  "packets dropped/not for us, count"
scalar PacketBouncewithTCP.etherSwitch1.eth[0].mac 	droppedPkNotForUs:sum(packetBytes) 	0
attr interpolationmode  none
attr source  dropPkNotForUs
attr title  "packets dropped/not for us, sum(packetBytes)"
scalar PacketBouncewithTCP.etherSwitch1.eth[0].mac 	droppedPkIfaceDown:count 	0
attr interpolationmode  none
attr source  dropPkIfaceDown
attr title  "packets dropped/interface down, count"
scalar PacketBouncewithTCP.etherSwitch1.eth[0].mac 	droppedPkIfaceDown:sum(packetBytes) 	0
attr interpolationmode  none
attr source  dropPkIfaceDown
attr title  "packets dropped/interface down, sum(packetBytes)"
scalar PacketBouncewithTCP.etherSwitch1.eth[0].mac 	droppedPkBitError:count 	0
attr interpolationmode  none
attr source  dropPkBitError
attr title  "packets dropped/bit error, count"
scalar PacketBouncewithTCP.etherSwitch1.eth[0].mac 	droppedPkBitError:sum(packetBytes) 	0
attr interpolationmode  none
attr source  dropPkBitError
attr title  "packets dropped/bit error, sum(packetBytes)"
scalar PacketBouncewithTCP.etherSwitch1.eth[0].mac 	rxPkFromHL:count 	8037
attr interpolationmode  none
attr source  rxPkFromHL
attr title  "packet bytes from higher layer, count"
scalar PacketBouncewithTCP.etherSwitch1.eth[0].mac 	rxPkFromHL:sum(packetBytes) 	563370
attr interpolationmode  none
attr source  rxPkFromHL
attr title  "packet bytes from higher layer, sum(packetBytes)"
scalar PacketBouncewithTCP.etherSwitch1.eth[0].mac 	rxPausePkUnits:count 	0
attr interpolationmode  none
attr title  "pause units received, count"
scalar PacketBouncewithTCP.etherSwitch1.eth[0].mac 	rxPausePkUnits:sum 	0
attr interpolationmode  none
attr title  "pause units received, sum"
scalar PacketBouncewithTCP.etherSwitch1.eth[0].mac 	txPausePkUnits:count 	0
attr interpolationmode  none
attr title  "pause units sent, count"
scalar PacketBouncewithTCP.etherSwitch1.eth[0].mac 	txPausePkUnits:sum 	0
attr interpolationmode  none
attr title  "pause units sent, sum"
scalar PacketBouncewithTCP.etherSwitch1.eth[0].mac 	rxPkOk:count 	8034
attr interpolationmode  none
attr source  rxPkOk
attr title  "packets received OK, count"
scalar PacketBouncewithTCP.etherSwitch1.eth[0].mac 	rxPkOk:sum(packetBytes) 	4756676
attr interpolationmode  none
attr source  rxPkOk
attr title  "packets received OK, sum(packetBytes)"
scalar PacketBouncewithTCP.etherSwitch1.eth[0].mac 	txPk:count 	8037
attr interpolationmode  none
attr source  txPk
attr title  "packets transmitted, count"
scalar PacketBouncewithTCP.etherSwitch1.eth[0].mac 	txPk:sum(packetBytes) 	563370
attr interpolationmode  none
attr source  txPk
attr title  "packets transmitted, sum(packetBytes)"
scalar PacketBouncewithTCP.etherSwitch1.eth[0].mac 	backoff:count 	0
attr interpolationmode  none
attr title  "backoff, count"
scalar PacketBouncewithTCP.etherSwitch1.eth[0].mac 	collision:count 	0
attr interpolationmode  none
attr title  "collision, count"
scalar PacketBouncewithTCP.etherSwitch1.eth[0].mac 	passedUpPk:count 	8034
attr interpolationmode  none
attr source  packetSentToUpper
attr title  "packets passed to higher layer, count"
scalar PacketBouncewithTCP.etherSwitch1.eth[0].mac 	passedUpPk:sum(packetBytes) 	4756676
attr interpolationmode  none
attr source  packetSentToUpper
attr title  "packets passed to higher layer, sum(packetBytes)"
statistic PacketBouncewithTCP.etherSwitch1.eth[1].queue.pauseQueue 	queueingTime:histogram
field count 0
field mean nan
field stddev nan
field sum 0
field sqrsum 0
field min nan
field max nan
attr interpolationmode  none
attr title  "queueing time, histogram"
bin	-INF	0
bin	-0.5	0
bin	-0.46666666666667	0
bin	-0.43333333333333	0
bin	-0.4	0
bin	-0.36666666666667	0
bin	-0.33333333333333	0
bin	-0.3	0
bin	-0.26666666666667	0
bin	-0.23333333333333	0
bin	-0.2	0
bin	-0.16666666666667	0
bin	-0.13333333333333	0
bin	-0.1	0
bin	-0.066666666666667	0
bin	-0.033333333333333	0
bin	0	0
bin	0.033333333333333	0
bin	0.066666666666667	0
bin	0.1	0
bin	0.13333333333333	0
bin	0.16666666666667	0
bin	0.2	0
bin	0.23333333333333	0
bin	0.26666666666667	0
bin	0.3	0
bin	0.33333333333333	0
bin	0.36666666666667	0
bin	0.4	0
bin	0.43333333333333	0
bin	0.46666666666667	0
bin	0.5	0
scalar PacketBouncewithTCP.etherSwitch1.eth[1].queue.pauseQueue 	dropPk:count 	0
attr interpolationmode  none
attr source  dropPkByQueue
attr title  "dropped packets, count"
scalar PacketBouncewithTCP.etherSwitch1.eth[1].queue.pauseQueue 	dropPk:sum(packetBytes) 	0
attr interpolationmode  none
attr source  dropPkByQueue
attr title  "dropped packets, sum(packetBytes)"
scalar PacketBouncewithTCP.etherSwitch1.eth[1].queue.pauseQueue 	queueLength:max 	0
attr interpolationmode  sample-hold
attr title  "queue length, max"
scalar PacketBouncewithTCP.etherSwitch1.eth[1].queue.pauseQueue 	queueLength:timeavg 	0
attr interpolationmode  sample-hold
attr title  "queue length, timeavg"
scalar PacketBouncewithTCP.etherSwitch1.eth[1].queue.pauseQueue 	rcvdPk:count 	0
attr interpolationmode  none
attr title  "received packets, count"
scalar PacketBouncewithTCP.etherSwitch1.eth[1].queue.pauseQueue 	rcvdPk:sum(packetBytes) 	0
attr interpolationmode  none
attr title  "received packets, sum(packetBytes)"
statistic PacketBouncewithTCP.etherSwitch1.eth[1].queue.passBackQueue 	queueingTime:histogram
field count 0
field mean nan
field stddev nan
field sum 0
field sqrsum 0
field min nan
field max nan
attr interpolationmode  none
attr title  "queueing time, histogram"
bin	-INF	0
bin	-0.5	0
bin	-0.46666666666667	0
bin	-0.43333333333333	0
bin	-0.4	0
bin	-0.36666666666667	0
bin	-0.33333333333333	0
bin	-0.3	0
bin	-0.26666666666667	0
bin	-0.23333333333333	0
bin	-0.2	0
bin	-0.16666666666667	0
bin	-0.13333333333333	0
bin	-0.1	0
bin	-0.066666666666667	0
bin	-0.033333333333333	0
bin	0	0
bin	0.033333333333333	0
bin	0.066666666666667	0
bin	0.1	0
bin	0.13333333333333	0
bin	0.16666666666667	0
bin	0.2	0
bin	0.23333333333333	0
bin	0.26666666666667	0
bin	0.3	0
bin	0.33333333333333	0
bin	0.36666666666667	0
bin	0.4	0
bin	0.43333333333333	0
bin	0.46666666666667	0
bin	0.5	0
scalar PacketBouncewithTCP.etherSwitch1.eth[1].queue.passBackQueue 	dropPk:count 	0
attr interpolationmode  none
attr source  dropPkByQueue
attr title  "dropped packets, count"
scalar PacketBouncewithTCP.etherSwitch1.eth[1].queue.passBackQueue 	dropPk:sum(packetBytes) 	0
attr interpolationmode  none
attr source  dropPkByQueue
attr title  "dropped packets, sum(packetBytes)"
[...]
bin	-0.066666666666667	0
bin	-0.033333333333333	0
bin	0	0
bin	0.033333333333333	0
bin	0.066666666666667	0
bin	0.1	0
bin	0.13333333333333	0
bin	0.16666666666667	0
bin	0.2	0
bin	0.23333333333333	0
bin	0.26666666666667	0
bin	0.3	0
bin	0.33333333333333	0
bin	0.36666666666667	0
bin	0.4	0
bin	0.43333333333333	0
bin	0.46666666666667	0
bin	0.5	0
scalar PacketBouncewithTCP.etherSwitch7.eth[2].queue.pauseQueue 	dropPk:count 	0
attr interpolationmode  none
attr source  dropPkByQueue
attr title  "dropped packets, count"
scalar PacketBouncewithTCP.etherSwitch7.eth[2].queue.pauseQueue 	dropPk:sum(packetBytes) 	0
attr interpolationmode  none
attr source  dropPkByQueue
attr title  "dropped packets, sum(packetBytes)"
scalar PacketBouncewithTCP.etherSwitch7.eth[2].queue.pauseQueue 	queueLength:max 	0
attr interpolationmode  sample-hold
attr title  "queue length, max"
scalar PacketBouncewithTCP.etherSwitch7.eth[2].queue.pauseQueue 	queueLength:timeavg 	0
attr interpolationmode  sample-hold
attr title  "queue length, timeavg"
scalar PacketBouncewithTCP.etherSwitch7.eth[2].queue.pauseQueue 	rcvdPk:count 	0
attr interpolationmode  none
attr title  "received packets, count"
scalar PacketBouncewithTCP.etherSwitch7.eth[2].queue.pauseQueue 	rcvdPk:sum(packetBytes) 	0
attr interpolationmode  none
attr title  "received packets, sum(packetBytes)"
statistic PacketBouncewithTCP.etherSwitch7.eth[2].queue.passBackQueue 	queueingTime:histogram
field count 3879
field mean 1.6889816963135e-07
field stddev 3.039844830841e-07
field sum 0.00065515599999999
field sqrsum 4.6900731200001e-10
field min 0
field max 1.144e-06
attr interpolationmode  none
attr title  "queueing time, histogram"
bin	-INF	0
bin	-3.6e-07	0
bin	-3.12e-07	0
bin	-2.64e-07	0
bin	-2.16e-07	0
bin	-1.68e-07	0
bin	-1.2e-07	0
bin	-7.2e-08	0
bin	-2.4e-08	2958
bin	2.4e-08	0
bin	7.2e-08	1
bin	1.2e-07	0
bin	1.68e-07	0
bin	2.16e-07	0
bin	2.64e-07	2
bin	3.12e-07	1
bin	3.6e-07	0
bin	4.08e-07	22
bin	4.56e-07	0
bin	5.04e-07	0
bin	5.52e-07	0
bin	6e-07	0
bin	6.48e-07	0
bin	6.96e-07	894
bin	7.44e-07	0
bin	7.92e-07	0
bin	8.4e-07	0
bin	8.88e-07	0
bin	9.36e-07	0
bin	9.84e-07	0
bin	1.032e-06	0
bin	1.08e-06	1
scalar PacketBouncewithTCP.etherSwitch7.eth[2].queue.passBackQueue 	dropPk:count 	0
attr interpolationmode  none
attr source  dropPkByQueue
attr title  "dropped packets, count"
scalar PacketBouncewithTCP.etherSwitch7.eth[2].queue.passBackQueue 	dropPk:sum(packetBytes) 	0
attr interpolationmode  none
attr source  dropPkByQueue
attr title  "dropped packets, sum(packetBytes)"
scalar PacketBouncewithTCP.etherSwitch7.eth[2].queue.passBackQueue 	queueLength:max 	1
attr interpolationmode  sample-hold
attr title  "queue length, max"
scalar PacketBouncewithTCP.etherSwitch7.eth[2].queue.passBackQueue 	queueLength:timeavg 	2.6948120231389e-06
attr interpolationmode  sample-hold
attr title  "queue length, timeavg"
scalar PacketBouncewithTCP.etherSwitch7.eth[2].queue.passBackQueue 	rcvdPk:count 	3879
attr interpolationmode  none
attr title  "received packets, count"
scalar PacketBouncewithTCP.etherSwitch7.eth[2].queue.passBackQueue 	rcvdPk:sum(packetBytes) 	2301780
attr interpolationmode  none
attr title  "received packets, sum(packetBytes)"
statistic PacketBouncewithTCP.etherSwitch7.eth[2].queue.dataQueue 	queueingTime:histogram
field count 8027
field mean 4.8020331381587e-07
field stddev 1.1753467601108e-06
field sum 0.003854592
field sqrsum 1.2938425344e-08
field min 0
field max 9.916e-06
attr interpolationmode  none
attr title  "queueing time, histogram"
bin	-INF	0
bin	-2.782e-06	0
bin	-2.4110666666667e-06	0
bin	-2.0401333333333e-06	0
bin	-1.6692e-06	0
bin	-1.2982666666667e-06	0
bin	-9.2733333333333e-07	0
bin	-5.564e-07	0
bin	-1.8546666666667e-07	6707
bin	1.8546666666667e-07	2
bin	5.564e-07	5
bin	9.2733333333333e-07	5
bin	1.2982666666667e-06	3
bin	1.6692e-06	327
bin	2.0401333333333e-06	225
bin	2.4110666666667e-06	125
bin	2.782e-06	70
bin	3.1529333333333e-06	296
bin	3.5238666666667e-06	53
bin	3.8948e-06	0
bin	4.2657333333333e-06	154
bin	4.6366666666667e-06	25
bin	5.0076e-06	2
bin	5.3785333333333e-06	1
bin	5.7494666666667e-06	0
bin	6.1204e-06	1
bin	6.4913333333333e-06	0
bin	6.8622666666667e-06	3
bin	7.2332e-06	10
bin	7.6041333333333e-06	6
bin	7.9750666666667e-06	0
bin	8.346e-06	7
scalar PacketBouncewithTCP.etherSwitch7.eth[2].queue.dataQueue 	dropPk:count 	0
attr interpolationmode  none
attr source  dropPkByQueue
attr title  "dropped packets, count"
scalar PacketBouncewithTCP.etherSwitch7.eth[2].queue.dataQueue 	dropPk:sum(packetBytes) 	0
attr interpolationmode  none
attr source  dropPkByQueue
attr title  "dropped packets, sum(packetBytes)"
scalar PacketBouncewithTCP.etherSwitch7.eth[2].queue.dataQueue 	queueLength:max 	2
attr interpolationmode  sample-hold
attr title  "queue length, max"
scalar PacketBouncewithTCP.etherSwitch7.eth[2].queue.dataQueue 	queueLength:timeavg 	1.5854851158953e-05
attr interpolationmode  sample-hold
attr title  "queue length, timeavg"
scalar PacketBouncewithTCP.etherSwitch7.eth[2].queue.dataQueue 	rcvdPk:count 	8027
attr interpolationmode  none
attr title  "received packets, count"
scalar PacketBouncewithTCP.etherSwitch7.eth[2].queue.dataQueue 	rcvdPk:sum(packetBytes) 	562670
attr interpolationmode  none
attr title  "received packets, sum(packetBytes)"
scalar PacketBouncewithTCP.etherSwitch7.eth[2].mac 	"simulated time" 	243.117514088
scalar PacketBouncewithTCP.etherSwitch7.eth[2].mac 	full-duplex 	1
scalar PacketBouncewithTCP.etherSwitch7.eth[2].mac 	"frames/sec sent" 	48.972201960285
scalar PacketBouncewithTCP.etherSwitch7.eth[2].mac 	"frames/sec rcvd" 	48.959862248721
scalar PacketBouncewithTCP.etherSwitch7.eth[2].mac 	"bits/sec sent" 	94257.29810525
scalar PacketBouncewithTCP.etherSwitch7.eth[2].mac 	"bits/sec rcvd" 	232241.79554404
scalar PacketBouncewithTCP.etherSwitch7.eth[2].mac 	"rx channel idle (%)" 	99.976462477327
scalar PacketBouncewithTCP.etherSwitch7.eth[2].mac 	"rx channel utilization (%)" 	0.023537522672796
scalar PacketBouncewithTCP.etherSwitch7.eth[2].mac 	"rx channel collision (%)" 	0
scalar PacketBouncewithTCP.etherSwitch7.eth[2].mac 	collisions 	0
scalar PacketBouncewithTCP.etherSwitch7.eth[2].mac 	backoffs 	0
scalar PacketBouncewithTCP.etherSwitch7.eth[2].mac 	droppedPkNotForUs:count 	0
attr interpolationmode  none
attr source  dropPkNotForUs
attr title  "packets dropped/not for us, count"
scalar PacketBouncewithTCP.etherSwitch7.eth[2].mac 	droppedPkNotForUs:sum(packetBytes) 	0
attr interpolationmode  none
attr source  dropPkNotForUs
attr title  "packets dropped/not for us, sum(packetBytes)"
scalar PacketBouncewithTCP.etherSwitch7.eth[2].mac 	droppedPkIfaceDown:count 	0
attr interpolationmode  none
attr source  dropPkIfaceDown
attr title  "packets dropped/interface down, count"
scalar PacketBouncewithTCP.etherSwitch7.eth[2].mac 	droppedPkIfaceDown:sum(packetBytes) 	0
attr interpolationmode  none
attr source  dropPkIfaceDown
attr title  "packets dropped/interface down, sum(packetBytes)"
scalar PacketBouncewithTCP.etherSwitch7.eth[2].mac 	droppedPkBitError:count 	0
attr interpolationmode  none
attr source  dropPkBitError
attr title  "packets dropped/bit error, count"
scalar PacketBouncewithTCP.etherSwitch7.eth[2].mac 	droppedPkBitError:sum(packetBytes) 	0
attr interpolationmode  none
attr source  dropPkBitError
attr title  "packets dropped/bit error, sum(packetBytes)"
scalar PacketBouncewithTCP.etherSwitch7.eth[2].mac 	rxPkFromHL:count 	11906
attr interpolationmode  none
attr source  rxPkFromHL
attr title  "packet bytes from higher layer, count"
scalar PacketBouncewithTCP.etherSwitch7.eth[2].mac 	rxPkFromHL:sum(packetBytes) 	2864450
attr interpolationmode  none
attr source  rxPkFromHL
attr title  "packet bytes from higher layer, sum(packetBytes)"
scalar PacketBouncewithTCP.etherSwitch7.eth[2].mac 	rxPausePkUnits:count 	0
attr interpolationmode  none
attr title  "pause units received, count"
scalar PacketBouncewithTCP.etherSwitch7.eth[2].mac 	rxPausePkUnits:sum 	0
attr interpolationmode  none
attr title  "pause units received, sum"
scalar PacketBouncewithTCP.etherSwitch7.eth[2].mac 	txPausePkUnits:count 	0
attr interpolationmode  none
attr title  "pause units sent, count"
scalar PacketBouncewithTCP.etherSwitch7.eth[2].mac 	txPausePkUnits:sum 	0
attr interpolationmode  none
attr title  "pause units sent, sum"
scalar PacketBouncewithTCP.etherSwitch7.eth[2].mac 	rxPkOk:count 	11903
attr interpolationmode  none
attr source  rxPkOk
attr title  "packets received OK, count"
scalar PacketBouncewithTCP.etherSwitch7.eth[2].mac 	rxPkOk:sum(packetBytes) 	7057756
attr interpolationmode  none
attr source  rxPkOk
attr title  "packets received OK, sum(packetBytes)"
scalar PacketBouncewithTCP.etherSwitch7.eth[2].mac 	txPk:count 	11906
attr interpolationmode  none
attr source  txPk
attr title  "packets transmitted, count"
scalar PacketBouncewithTCP.etherSwitch7.eth[2].mac 	txPk:sum(packetBytes) 	2864450
attr interpolationmode  none
attr source  txPk
attr title  "packets transmitted, sum(packetBytes)"
scalar PacketBouncewithTCP.etherSwitch7.eth[2].mac 	backoff:count 	0
attr interpolationmode  none
attr title  "backoff, count"
scalar PacketBouncewithTCP.etherSwitch7.eth[2].mac 	collision:count 	0
attr interpolationmode  none
attr title  "collision, count"
scalar PacketBouncewithTCP.etherSwitch7.eth[2].mac 	passedUpPk:count 	11903
attr interpolationmode  none
attr source  packetSentToUpper
attr title  "packets passed to higher layer, count"
scalar PacketBouncewithTCP.etherSwitch7.eth[2].mac 	passedUpPk:sum(packetBytes) 	7057756
attr interpolationmode  none
attr source  packetSentToUpper
attr title  "packets passed to higher layer, sum(packetBytes)"
statistic PacketBouncewithTCP.etherSwitch7.eth[3].queue.pauseQueue 	queueingTime:histogram
field count 0
field mean nan
field stddev nan
field sum 0
field sqrsum 0
field min nan
field max nan
attr interpolationmode  none
attr title  "queueing time, histogram"
bin	-INF	0
bin	-0.5	0
bin	-0.46666666666667	0
bin	-0.43333333333333	0
bin	-0.4	0
bin	-0.36666666666667	0
bin	-0.33333333333333	0
bin	-0.3	0
bin	-0.26666666666667	0
bin	-0.23333333333333	0
bin	-0.2	0
bin	-0.16666666666667	0
bin	-0.13333333333333	0
bin	-0.1	0
bin	-0.066666666666667	0
bin	-0.033333333333333	0
bin	0	0
bin	0.033333333333333	0
bin	0.066666666666667	0
bin	0.1	0
bin	0.13333333333333	0
bin	0.16666666666667	0
bin	0.2	0
bin	0.23333333333333	0
bin	0.26666666666667	0
bin	0.3	0
bin	0.33333333333333	0
bin	0.36666666666667	0
bin	0.4	0
bin	0.43333333333333	0
bin	0.46666666666667	0
bin	0.5	0
scalar PacketBouncewithTCP.etherSwitch7.eth[3].queue.pauseQueue 	dropPk:count 	0
attr interpolationmode  none
attr source  dropPkByQueue
attr title  "dropped packets, count"
scalar PacketBouncewithTCP.etherSwitch7.eth[3].queue.pauseQueue 	dropPk:sum(packetBytes) 	0
attr interpolationmode  none
attr source  dropPkByQueue
attr title  "dropped packets, sum(packetBytes)"
scalar PacketBouncewithTCP.etherSwitch7.eth[3].queue.pauseQueue 	queueLength:max 	0
attr interpolationmode  sample-hold
attr title  "queue length, max"
scalar PacketBouncewithTCP.etherSwitch7.eth[3].queue.pauseQueue 	queueLength:timeavg 	0
attr interpolationmode  sample-hold
attr title  "queue length, timeavg"
scalar PacketBouncewithTCP.etherSwitch7.eth[3].queue.pauseQueue 	rcvdPk:count 	0
attr interpolationmode  none
attr title  "received packets, count"
scalar PacketBouncewithTCP.etherSwitch7.eth[3].queue.pauseQueue 	rcvdPk:sum(packetBytes) 	0
attr interpolationmode  none
attr title  "received packets, sum(packetBytes)"
statistic PacketBouncewithTCP.etherSwitch7.eth[3].queue.passBackQueue 	queueingTime:histogram
field count 12155
field mean 0.00012864500633484
field stddev 7.7393566700384e-05
field sum 1.563680052
field sqrsum 0.00027395922387614
field min 2.4e-08
field max 0.000274976
attr interpolationmode  none
attr title  "queueing time, histogram"
bin	-INF	0
bin	-9.012e-06	0
bin	-7.8072e-06	0
bin	-6.6024e-06	0
bin	-5.3976e-06	0
bin	-4.1928e-06	0
bin	-2.988e-06	0
bin	-1.7832e-06	0
bin	-5.784e-07	9
bin	6.264e-07	65
bin	1.8312e-06	83
bin	3.036e-06	14
bin	4.2408e-06	34
bin	5.4456e-06	88
bin	6.6504e-06	97
bin	7.8552e-06	10
bin	9.06e-06	39
bin	1.02648e-05	125
bin	1.14696e-05	106
bin	1.26744e-05	4
bin	1.38792e-05	61
bin	1.5084e-05	121
bin	1.62888e-05	99
bin	1.74936e-05	16
bin	1.86984e-05	32
bin	1.99032e-05	89
bin	2.1108e-05	104
bin	2.23128e-05	5
bin	2.35176e-05	29
bin	2.47224e-05	97
bin	2.59272e-05	130
bin	2.7132e-05	10698
scalar PacketBouncewithTCP.etherSwitch7.eth[3].queue.passBackQueue 	dropPk:count 	0
attr interpolationmode  none
attr source  dropPkByQueue
attr title  "dropped packets, count"
scalar PacketBouncewithTCP.etherSwitch7.eth[3].queue.passBackQueue 	dropPk:sum(packetBytes) 	0
attr interpolationmode  none
attr source  dropPkByQueue
attr title  "dropped packets, sum(packetBytes)"
scalar PacketBouncewithTCP.etherSwitch7.eth[3].queue.passBackQueue 	queueLength:max 	56
attr interpolationmode  sample-hold
attr title  "queue length, max"
scalar PacketBouncewithTCP.etherSwitch7.eth[3].queue.passBackQueue 	queueLength:timeavg 	0.0064317869400145
attr interpolationmode  sample-hold
attr title  "queue length, timeavg"
scalar PacketBouncewithTCP.etherSwitch7.eth[3].queue.passBackQueue 	rcvdPk:count 	12155
attr interpolationmode  none
attr title  "received packets, count"
scalar PacketBouncewithTCP.etherSwitch7.eth[3].queue.passBackQueue 	rcvdPk:sum(packetBytes) 	7209252
attr interpolationmode  none
attr title  "received packets, sum(packetBytes)"
statistic PacketBouncewithTCP.etherSwitch7.eth[3].queue.dataQueue 	queueingTime:histogram
field count 11934
field mean 0.00074183778280543
field stddev 0.00049573352238984
field sum 8.8530921
field sqrsum 0.009500113551499
field min 0
field max 0.001286704
attr interpolationmode  none
attr title  "queueing time, histogram"
bin	-INF	0
bin	-0.000101848	0
bin	-8.8268266666667e-05	0
bin	-7.4688533333333e-05	0
bin	-6.11088e-05	0
bin	-4.7529066666667e-05	0
bin	-3.3949333333333e-05	0
bin	-2.03696e-05	0
bin	-6.7898666666667e-06	211
bin	6.7898666666667e-06	318
bin	2.03696e-05	395
bin	3.3949333333333e-05	353
bin	4.7529066666667e-05	305
bin	6.11088e-05	293
bin	7.4688533333333e-05	318
bin	8.8268266666667e-05	325
bin	0.000101848	328
bin	0.00011542773333333	270
bin	0.00012900746666667	292
bin	0.0001425872	314
bin	0.00015616693333333	300
bin	0.00016974666666667	22
bin	0.0001833264	11
bin	0.00019690613333333	9
bin	0.00021048586666667	7
bin	0.0002240656	8
bin	0.00023764533333333	10
bin	0.00025122506666667	5
bin	0.0002648048	5
bin	0.00027838453333333	5
bin	0.00029196426666667	5
bin	0.000305544	7825
scalar PacketBouncewithTCP.etherSwitch7.eth[3].queue.dataQueue 	dropPk:count 	0
attr interpolationmode  none
attr source  dropPkByQueue
attr title  "dropped packets, count"
scalar PacketBouncewithTCP.etherSwitch7.eth[3].queue.dataQueue 	dropPk:sum(packetBytes) 	0
attr interpolationmode  none
attr source  dropPkByQueue
attr title  "dropped packets, sum(packetBytes)"
scalar PacketBouncewithTCP.etherSwitch7.eth[3].queue.dataQueue 	queueLength:max 	100
attr interpolationmode  sample-hold
attr title  "queue length, max"
scalar PacketBouncewithTCP.etherSwitch7.eth[3].queue.dataQueue 	queueLength:timeavg 	0.036414867654477
attr interpolationmode  sample-hold
attr title  "queue length, timeavg"
scalar PacketBouncewithTCP.etherSwitch7.eth[3].queue.dataQueue 	rcvdPk:count 	11934
attr interpolationmode  none
attr title  "received packets, count"
scalar PacketBouncewithTCP.etherSwitch7.eth[3].queue.dataQueue 	rcvdPk:sum(packetBytes) 	7059866
attr interpolationmode  none
attr title  "received packets, sum(packetBytes)"
scalar PacketBouncewithTCP.etherSwitch7.eth[3].mac 	"simulated time" 	243.117514088
scalar PacketBouncewithTCP.etherSwitch7.eth[3].mac 	full-duplex 	1
scalar PacketBouncewithTCP.etherSwitch7.eth[3].mac 	"frames/sec sent" 	99.083770621645
scalar PacketBouncewithTCP.etherSwitch7.eth[3].mac 	"frames/sec rcvd" 	99.096110333209
scalar PacketBouncewithTCP.etherSwitch7.eth[3].mac 	"bits/sec sent" 	469538.13438007
scalar PacketBouncewithTCP.etherSwitch7.eth[3].mac 	"bits/sec rcvd" 	55572.006199067
scalar PacketBouncewithTCP.etherSwitch7.eth[3].mac 	"rx channel idle (%)" 	99.993808584274
scalar PacketBouncewithTCP.etherSwitch7.eth[3].mac 	"rx channel utilization (%)" 	0.0061914157260392
scalar PacketBouncewithTCP.etherSwitch7.eth[3].mac 	"rx channel collision (%)" 	0
scalar PacketBouncewithTCP.etherSwitch7.eth[3].mac 	collisions 	0
scalar PacketBouncewithTCP.etherSwitch7.eth[3].mac 	backoffs 	0
scalar PacketBouncewithTCP.etherSwitch7.eth[3].mac 	droppedPkNotForUs:count 	0
attr interpolationmode  none
attr source  dropPkNotForUs
attr title  "packets dropped/not for us, count"
scalar PacketBouncewithTCP.etherSwitch7.eth[3].mac 	droppedPkNotForUs:sum(packetBytes) 	0
attr interpolationmode  none
attr source  dropPkNotForUs
attr title  "packets dropped/not for us, sum(packetBytes)"
scalar PacketBouncewithTCP.etherSwitch7.eth[3].mac 	droppedPkIfaceDown:count 	0
attr interpolationmode  none
attr source  dropPkIfaceDown
attr title  "packets dropped/interface down, count"
scalar PacketBouncewithTCP.etherSwitch7.eth[3].mac 	droppedPkIfaceDown:sum(packetBytes) 	0
attr interpolationmode  none
attr source  dropPkIfaceDown
attr title  "packets dropped/interface down, sum(packetBytes)"
scalar PacketBouncewithTCP.etherSwitch7.eth[3].mac 	droppedPkBitError:count 	0
attr interpolationmode  none
attr source  dropPkBitError
attr title  "packets dropped/bit error, count"
scalar PacketBouncewithTCP.etherSwitch7.eth[3].mac 	droppedPkBitError:sum(packetBytes) 	0
attr interpolationmode  none
attr source  dropPkBitError
attr title  "packets dropped/bit error, sum(packetBytes)"
scalar PacketBouncewithTCP.etherSwitch7.eth[3].mac 	rxPkFromHL:count 	24089
attr interpolationmode  none
attr source  rxPkFromHL
attr title  "packet bytes from higher layer, count"
scalar PacketBouncewithTCP.etherSwitch7.eth[3].mac 	rxPkFromHL:sum(packetBytes) 	14269118
attr interpolationmode  none
attr source  rxPkFromHL
attr title  "packet bytes from higher layer, sum(packetBytes)"
scalar PacketBouncewithTCP.etherSwitch7.eth[3].mac 	rxPausePkUnits:count 	0
attr interpolationmode  none
attr title  "pause units received, count"
scalar PacketBouncewithTCP.etherSwitch7.eth[3].mac 	rxPausePkUnits:sum 	0
attr interpolationmode  none
attr title  "pause units received, sum"
scalar PacketBouncewithTCP.etherSwitch7.eth[3].mac 	txPausePkUnits:count 	0
attr interpolationmode  none
attr title  "pause units sent, count"
scalar PacketBouncewithTCP.etherSwitch7.eth[3].mac 	txPausePkUnits:sum 	0
attr interpolationmode  none
attr title  "pause units sent, sum"
scalar PacketBouncewithTCP.etherSwitch7.eth[3].mac 	rxPkOk:count 	24092
attr interpolationmode  none
attr source  rxPkOk
attr title  "packets received OK, count"
scalar PacketBouncewithTCP.etherSwitch7.eth[3].mac 	rxPkOk:sum(packetBytes) 	1688816
attr interpolationmode  none
attr source  rxPkOk
attr title  "packets received OK, sum(packetBytes)"
scalar PacketBouncewithTCP.etherSwitch7.eth[3].mac 	txPk:count 	24089
attr interpolationmode  none
attr source  txPk
attr title  "packets transmitted, count"
scalar PacketBouncewithTCP.etherSwitch7.eth[3].mac 	txPk:sum(packetBytes) 	14269118
attr interpolationmode  none
attr source  txPk
attr title  "packets transmitted, sum(packetBytes)"
scalar PacketBouncewithTCP.etherSwitch7.eth[3].mac 	backoff:count 	0
attr interpolationmode  none
attr title  "backoff, count"
scalar PacketBouncewithTCP.etherSwitch7.eth[3].mac 	collision:count 	0
attr interpolationmode  none
attr title  "collision, count"
scalar PacketBouncewithTCP.etherSwitch7.eth[3].mac 	passedUpPk:count 	24092
attr interpolationmode  none
attr source  packetSentToUpper
attr title  "packets passed to higher layer, count"
scalar PacketBouncewithTCP.etherSwitch7.eth[3].mac 	passedUpPk:sum(packetBytes) 	1688816
attr interpolationmode  none
attr source  packetSentToUpper
attr title  "packets passed to higher layer, sum(packetBytes)"
